  
       XFOIL         Version 6.97
  
 Calculated polar for: NC130                                           
  
 1 1 Reynolds number fixed          Mach number fixed         
  
 xtrf =   1.000 (top)        1.000 (bottom)  
 Mach =   0.700     Re =    25.000 e 6     Ncrit =   9.000
  
   alpha    CL        CD       CDp       CM     Top_Xtr  Bot_Xtr
  ------ -------- --------- --------- -------- -------- --------
   0.222   0.3500   0.00517   0.00161  -0.0968   0.1456   0.5711
   0.560   0.4000   0.00539   0.00175  -0.0953   0.1098   0.5818
   0.900   0.4500   0.00562   0.00192  -0.0937   0.0793   0.5903
   1.231   0.5000   0.00582   0.00209  -0.0922   0.0600   0.5992
   1.572   0.5500   0.00604   0.00228  -0.0901   0.0476   0.6014
   1.906   0.6000   0.00625   0.00248  -0.0881   0.0395   0.6030
   2.231   0.6500   0.00646   0.00268  -0.0862   0.0342   0.6042
   2.553   0.7000   0.00667   0.00290  -0.0840   0.0299   0.6050
