  
       XFOIL         Version 6.97
  
 Calculated polar for: NE110                                           
  
 1 1 Reynolds number fixed          Mach number fixed         
  
 xtrf =   1.000 (top)        1.000 (bottom)  
 Mach =   0.500     Re =    30.000 e 6     Ncrit =   9.000
  
   alpha    CL        CD       CDp       CM     Top_Xtr  Bot_Xtr
  ------ -------- --------- --------- -------- -------- --------
  -1.305   0.3000   0.00585   0.00125  -0.1271   0.1785   0.0437
  -0.924   0.3500   0.00589   0.00127  -0.1272   0.1369   0.0890
  -0.588   0.4000   0.00527   0.00114  -0.1294   0.1155   0.3618
  -0.223   0.4500   0.00508   0.00112  -0.1301   0.0890   0.4745
   0.150   0.5000   0.00507   0.00117  -0.1304   0.0739   0.5297
   0.527   0.5500   0.00516   0.00126  -0.1303   0.0621   0.5497
   0.903   0.6000   0.00528   0.00135  -0.1302   0.0539   0.5563
   1.279   0.6500   0.00541   0.00145  -0.1299   0.0498   0.5620
   1.654   0.7000   0.00554   0.00156  -0.1296   0.0439   0.5644
