  
       XFOIL         Version 6.97
  
 Calculated polar for: NE110                                           
  
 1 1 Reynolds number fixed          Mach number fixed         
  
 xtrf =   1.000 (top)        1.000 (bottom)  
 Mach =   0.500     Re =    25.000 e 6     Ncrit =   9.000
  
   alpha    CL        CD       CDp       CM     Top_Xtr  Bot_Xtr
  ------ -------- --------- --------- -------- -------- --------
  -1.290   0.3000   0.00593   0.00128  -0.1266   0.1995   0.0518
  -0.583   0.4000   0.00514   0.00110  -0.1295   0.1273   0.4378
  -0.207   0.4500   0.00512   0.00114  -0.1298   0.0973   0.5049
   0.169   0.5000   0.00516   0.00120  -0.1299   0.0778   0.5445
   0.548   0.5500   0.00528   0.00129  -0.1297   0.0650   0.5585
   0.927   0.6000   0.00542   0.00140  -0.1295   0.0554   0.5631
   1.303   0.6500   0.00555   0.00150  -0.1292   0.0520   0.5651
   1.680   0.7000   0.00570   0.00162  -0.1289   0.0446   0.5724
