  
       XFOIL         Version 6.97
  
 Calculated polar for: NE145                                           
  
 1 1 Reynolds number fixed          Mach number fixed         
  
 xtrf =   1.000 (top)        1.000 (bottom)  
 Mach =   0.800     Re =    15.000 e 6     Ncrit =   9.000
  
   alpha    CL        CD       CDp       CM     Top_Xtr  Bot_Xtr
  ------ -------- --------- --------- -------- -------- --------
  -0.337   0.3000   0.00692   0.00319  -0.1183   0.1188   0.5232
  -0.067   0.3500   0.00724   0.00345  -0.1167   0.0871   0.5303
   0.190   0.4000   0.00750   0.00368  -0.1156   0.0672   0.5391
   0.452   0.4500   0.00781   0.00396  -0.1141   0.0535   0.5407
   0.708   0.5000   0.00809   0.00423  -0.1126   0.0457   0.5417
   0.961   0.5500   0.00836   0.00452  -0.1111   0.0413   0.5441
   1.210   0.6000   0.00865   0.00484  -0.1094   0.0376   0.5479
   1.453   0.6500   0.00893   0.00516  -0.1077   0.0363   0.5506
   1.702   0.7000   0.00928   0.00556  -0.1054   0.0353   0.5527
