  
       XFOIL         Version 6.97
  
 Calculated polar for: NC145                                           
  
 1 1 Reynolds number fixed          Mach number fixed         
  
 xtrf =   1.000 (top)        1.000 (bottom)  
 Mach =   0.400     Re =    30.000 e 6     Ncrit =   9.000
  
   alpha    CL        CD       CDp       CM     Top_Xtr  Bot_Xtr
  ------ -------- --------- --------- -------- -------- --------
  -0.302   0.3000   0.00506   0.00110  -0.0982   0.1363   0.4754
   0.068   0.3500   0.00496   0.00110  -0.0995   0.1060   0.5512
   0.460   0.4000   0.00507   0.00118  -0.0999   0.0827   0.5687
   0.854   0.4500   0.00520   0.00127  -0.1002   0.0659   0.5865
   1.249   0.5000   0.00534   0.00137  -0.1004   0.0519   0.5948
   1.644   0.5500   0.00549   0.00148  -0.1005   0.0440   0.5971
   2.041   0.6000   0.00564   0.00160  -0.1005   0.0377   0.5983
   2.437   0.6500   0.00580   0.00172  -0.1005   0.0342   0.5990
   2.833   0.7000   0.00596   0.00185  -0.1004   0.0307   0.5993
