  
       XFOIL         Version 6.97
  
 Calculated polar for: NE140                                           
  
 1 1 Reynolds number fixed          Mach number fixed         
  
 xtrf =   1.000 (top)        1.000 (bottom)  
 Mach =   0.400     Re =    10.000 e 6     Ncrit =   9.000
  
   alpha    CL        CD       CDp       CM     Top_Xtr  Bot_Xtr
  ------ -------- --------- --------- -------- -------- --------
  -0.726   0.3000   0.00516   0.00110  -0.1122   0.2478   0.5577
  -0.306   0.3500   0.00552   0.00123  -0.1120   0.1688   0.5690
   0.102   0.4000   0.00579   0.00135  -0.1119   0.1215   0.5728
   0.507   0.4500   0.00603   0.00148  -0.1119   0.0897   0.5754
   0.910   0.5000   0.00626   0.00161  -0.1118   0.0669   0.5768
   1.308   0.5500   0.00644   0.00174  -0.1118   0.0558   0.5803
   1.703   0.6000   0.00661   0.00188  -0.1119   0.0486   0.5848
   2.099   0.6500   0.00679   0.00202  -0.1118   0.0450   0.5880
   2.494   0.7000   0.00697   0.00218  -0.1117   0.0412   0.5903
