  
       XFOIL         Version 6.97
  
 Calculated polar for: NE110                                           
  
 1 1 Reynolds number fixed          Mach number fixed         
  
 xtrf =   1.000 (top)        1.000 (bottom)  
 Mach =   0.600     Re =    15.000 e 6     Ncrit =   9.000
  
   alpha    CL        CD       CDp       CM     Top_Xtr  Bot_Xtr
  ------ -------- --------- --------- -------- -------- --------
  -1.021   0.3500   0.00536   0.00130  -0.1347   0.2495   0.3887
  -0.673   0.4000   0.00524   0.00127  -0.1352   0.1890   0.5039
  -0.310   0.4500   0.00541   0.00137  -0.1347   0.1416   0.5345
   0.050   0.5000   0.00559   0.00148  -0.1341   0.1050   0.5547
   0.409   0.5500   0.00579   0.00161  -0.1335   0.0781   0.5648
   0.761   0.6000   0.00595   0.00173  -0.1329   0.0655   0.5714
   1.113   0.6500   0.00612   0.00187  -0.1323   0.0560   0.5761
   1.460   0.7000   0.00626   0.00201  -0.1315   0.0521   0.5789
