  
       XFOIL         Version 6.97
  
 Calculated polar for: NC100                                           
  
 1 1 Reynolds number fixed          Mach number fixed         
  
 xtrf =   1.000 (top)        1.000 (bottom)  
 Mach =   0.600     Re =    30.000 e 6     Ncrit =   9.000
  
   alpha    CL        CD       CDp       CM     Top_Xtr  Bot_Xtr
  ------ -------- --------- --------- -------- -------- --------
  -1.106   0.3000   0.00549   0.00116  -0.1256   0.2800   0.0389
  -0.729   0.3500   0.00560   0.00119  -0.1248   0.2162   0.0756
  -0.358   0.4000   0.00566   0.00124  -0.1244   0.1544   0.1503
   0.001   0.4500   0.00564   0.00130  -0.1243   0.1113   0.2466
   0.348   0.5000   0.00553   0.00135  -0.1246   0.0812   0.3709
   0.689   0.5500   0.00535   0.00141  -0.1251   0.0579   0.5188
   1.041   0.6000   0.00534   0.00151  -0.1249   0.0429   0.5992
   1.399   0.6500   0.00546   0.00165  -0.1241   0.0314   0.6249
   1.757   0.7000   0.00563   0.00180  -0.1230   0.0248   0.6317
