  
       XFOIL         Version 6.97
  
 Calculated polar for: NC145                                           
  
 1 1 Reynolds number fixed          Mach number fixed         
  
 xtrf =   1.000 (top)        1.000 (bottom)  
 Mach =   0.800     Re =    25.000 e 6     Ncrit =   9.000
  
   alpha    CL        CD       CDp       CM     Top_Xtr  Bot_Xtr
  ------ -------- --------- --------- -------- -------- --------
   0.249   0.3500   0.00618   0.00279  -0.0975   0.1381   0.5653
   0.541   0.4000   0.00655   0.00308  -0.0950   0.1000   0.5686
   0.810   0.4500   0.00684   0.00334  -0.0933   0.0779   0.5774
   1.083   0.5000   0.00716   0.00364  -0.0913   0.0580   0.5820
   1.348   0.5500   0.00746   0.00394  -0.0894   0.0475   0.5827
   1.610   0.6000   0.00775   0.00424  -0.0873   0.0414   0.5832
   1.870   0.6500   0.00807   0.00458  -0.0850   0.0361   0.5836
   2.123   0.7000   0.00838   0.00491  -0.0827   0.0330   0.5839
