  
       XFOIL         Version 6.97
  
 Calculated polar for: NC120                                           
  
 1 1 Reynolds number fixed          Mach number fixed         
  
 xtrf =   1.000 (top)        1.000 (bottom)  
 Mach =   0.600     Re =    30.000 e 6     Ncrit =   9.000
  
   alpha    CL        CD       CDp       CM     Top_Xtr  Bot_Xtr
  ------ -------- --------- --------- -------- -------- --------
  -0.528   0.3000   0.00574   0.00135  -0.1069   0.1906   0.1420
   0.108   0.4000   0.00516   0.00129  -0.1101   0.1177   0.4743
   0.451   0.4500   0.00505   0.00132  -0.1104   0.0914   0.5675
   0.827   0.5000   0.00517   0.00142  -0.1093   0.0669   0.5939
   1.207   0.5500   0.00533   0.00155  -0.1079   0.0494   0.6075
   1.582   0.6000   0.00550   0.00168  -0.1065   0.0396   0.6089
   1.953   0.6500   0.00567   0.00183  -0.1050   0.0330   0.6095
   2.320   0.7000   0.00586   0.00200  -0.1035   0.0280   0.6115
