  
       XFOIL         Version 6.97
  
 Calculated polar for: NE090                                           
  
 1 1 Reynolds number fixed          Mach number fixed         
  
 xtrf =   1.000 (top)        1.000 (bottom)  
 Mach =   0.400     Re =    15.000 e 6     Ncrit =   9.000
  
   alpha    CL        CD       CDp       CM     Top_Xtr  Bot_Xtr
  ------ -------- --------- --------- -------- -------- --------
  -1.570   0.3000   0.00575   0.00100  -0.1310   0.3331   0.0126
  -1.147   0.3500   0.00593   0.00102  -0.1307   0.2675   0.0171
  -0.728   0.4000   0.00606   0.00105  -0.1304   0.2067   0.0441
  -0.340   0.4500   0.00547   0.00102  -0.1317   0.1666   0.3674
   0.069   0.5000   0.00533   0.00105  -0.1320   0.1206   0.5152
   0.480   0.5500   0.00537   0.00114  -0.1320   0.0908   0.5859
   0.889   0.6000   0.00552   0.00124  -0.1318   0.0736   0.5966
   1.298   0.6500   0.00568   0.00135  -0.1315   0.0618   0.6019
   1.706   0.7000   0.00583   0.00147  -0.1312   0.0550   0.6115
