  
       XFOIL         Version 6.97
  
 Calculated polar for: NE110                                           
  
 1 1 Reynolds number fixed          Mach number fixed         
  
 xtrf =   1.000 (top)        1.000 (bottom)  
 Mach =   0.800     Re =    10.000 e 6     Ncrit =   9.000
  
   alpha    CL        CD       CDp       CM     Top_Xtr  Bot_Xtr
  ------ -------- --------- --------- -------- -------- --------
  -0.769   0.3000   0.00743   0.00317  -0.1269   0.4176   0.0385
  -0.466   0.4000   0.00641   0.00263  -0.1397   0.2654   0.4798
   0.128   0.5000   0.00718   0.00313  -0.1355   0.1209   0.5404
   0.406   0.5500   0.00749   0.00338  -0.1336   0.0882   0.5499
   0.673   0.6000   0.00774   0.00363  -0.1320   0.0726   0.5618
   0.938   0.6500   0.00799   0.00387  -0.1301   0.0634   0.5641
   1.200   0.7000   0.00826   0.00415  -0.1282   0.0549   0.5674
