  
       XFOIL         Version 6.97
  
 Calculated polar for: NC140                                           
  
 1 1 Reynolds number fixed          Mach number fixed         
  
 xtrf =   1.000 (top)        1.000 (bottom)  
 Mach =   0.700     Re =    30.000 e 6     Ncrit =   9.000
  
   alpha    CL        CD       CDp       CM     Top_Xtr  Bot_Xtr
  ------ -------- --------- --------- -------- -------- --------
  -0.401   0.3000   0.00511   0.00156  -0.1082   0.1754   0.5016
  -0.123   0.3500   0.00515   0.00161  -0.1092   0.1369   0.5515
   0.180   0.4000   0.00530   0.00172  -0.1090   0.1096   0.5673
   0.494   0.4500   0.00552   0.00187  -0.1082   0.0820   0.5712
   0.793   0.5000   0.00568   0.00202  -0.1079   0.0633   0.5844
   1.105   0.5500   0.00590   0.00220  -0.1069   0.0500   0.5859
   1.418   0.6000   0.00609   0.00238  -0.1056   0.0426   0.5866
   1.726   0.6500   0.00628   0.00256  -0.1044   0.0372   0.5892
   2.032   0.7000   0.00648   0.00277  -0.1029   0.0323   0.5923
