  
       XFOIL         Version 6.97
  
 Calculated polar for: NE145                                           
  
 1 1 Reynolds number fixed          Mach number fixed         
  
 xtrf =   1.000 (top)        1.000 (bottom)  
 Mach =   0.400     Re =    20.000 e 6     Ncrit =   9.000
  
   alpha    CL        CD       CDp       CM     Top_Xtr  Bot_Xtr
  ------ -------- --------- --------- -------- -------- --------
  -0.654   0.3000   0.00513   0.00111  -0.1111   0.1238   0.5277
  -0.264   0.3500   0.00524   0.00117  -0.1116   0.0978   0.5501
   0.129   0.4000   0.00538   0.00125  -0.1119   0.0775   0.5555
   0.525   0.4500   0.00556   0.00136  -0.1120   0.0600   0.5570
   0.917   0.5000   0.00571   0.00146  -0.1122   0.0507   0.5594
   1.309   0.5500   0.00586   0.00157  -0.1124   0.0438   0.5648
   1.699   0.6000   0.00600   0.00168  -0.1125   0.0403   0.5688
   2.090   0.6500   0.00614   0.00181  -0.1125   0.0368   0.5712
   2.482   0.7000   0.00631   0.00194  -0.1125   0.0344   0.5725
