  
       XFOIL         Version 6.97
  
 Calculated polar for: NE100                                           
  
 1 1 Reynolds number fixed          Mach number fixed         
  
 xtrf =   1.000 (top)        1.000 (bottom)  
 Mach =   0.800     Re =    15.000 e 6     Ncrit =   9.000
  
   alpha    CL        CD       CDp       CM     Top_Xtr  Bot_Xtr
  ------ -------- --------- --------- -------- -------- --------
  -1.187   0.3000   0.00676   0.00259  -0.1471   0.3879   0.0126
  -0.579   0.4000   0.00741   0.00283  -0.1422   0.2252   0.0215
  -0.306   0.4500   0.00761   0.00294  -0.1411   0.1737   0.0364
  -0.052   0.5000   0.00774   0.00307  -0.1408   0.1301   0.0908
   0.035   0.5500   0.00678   0.00280  -0.1497   0.1052   0.4782
   0.296   0.6000   0.00692   0.00297  -0.1487   0.0789   0.5227
   0.557   0.6500   0.00710   0.00316  -0.1474   0.0673   0.5416
   0.813   0.7000   0.00726   0.00336  -0.1460   0.0616   0.5571
