  
       XFOIL         Version 6.97
  
 Calculated polar for: NE130                                           
  
 1 1 Reynolds number fixed          Mach number fixed         
  
 xtrf =   1.000 (top)        1.000 (bottom)  
 Mach =   0.400     Re =    25.000 e 6     Ncrit =   9.000
  
   alpha    CL        CD       CDp       CM     Top_Xtr  Bot_Xtr
  ------ -------- --------- --------- -------- -------- --------
  -0.873   0.3000   0.00506   0.00103  -0.1147   0.1431   0.4444
  -0.480   0.3500   0.00499   0.00103  -0.1154   0.1106   0.5143
  -0.079   0.4000   0.00508   0.00109  -0.1155   0.0851   0.5406
   0.323   0.4500   0.00520   0.00117  -0.1156   0.0692   0.5524
   0.724   0.5000   0.00533   0.00126  -0.1156   0.0588   0.5567
   1.124   0.5500   0.00546   0.00136  -0.1156   0.0507   0.5625
   1.525   0.6000   0.00560   0.00146  -0.1155   0.0461   0.5661
   1.924   0.6500   0.00573   0.00157  -0.1153   0.0423   0.5676
   2.324   0.7000   0.00588   0.00169  -0.1151   0.0399   0.5711
