  
       XFOIL         Version 6.97
  
 Calculated polar for: NE110                                           
  
 1 1 Reynolds number fixed          Mach number fixed         
  
 xtrf =   1.000 (top)        1.000 (bottom)  
 Mach =   0.800     Re =    15.000 e 6     Ncrit =   9.000
  
   alpha    CL        CD       CDp       CM     Top_Xtr  Bot_Xtr
  ------ -------- --------- --------- -------- -------- --------
  -0.749   0.3000   0.00753   0.00314  -0.1273   0.2799   0.0329
  -0.480   0.3500   0.00771   0.00321  -0.1266   0.2216   0.0524
  -0.376   0.4000   0.00704   0.00294  -0.1345   0.1880   0.2974
  -0.229   0.4500   0.00650   0.00270  -0.1402   0.1499   0.4961
   0.050   0.5000   0.00677   0.00290  -0.1386   0.1020   0.5225
   0.318   0.5500   0.00701   0.00310  -0.1371   0.0780   0.5345
   0.577   0.6000   0.00720   0.00330  -0.1358   0.0657   0.5471
   0.837   0.6500   0.00741   0.00351  -0.1342   0.0598   0.5537
   1.097   0.7000   0.00763   0.00375  -0.1324   0.0534   0.5582
