  
       XFOIL         Version 6.97
  
 Calculated polar for: NC130                                           
  
 1 1 Reynolds number fixed          Mach number fixed         
  
 xtrf =   1.000 (top)        1.000 (bottom)  
 Mach =   0.700     Re =    15.000 e 6     Ncrit =   9.000
  
   alpha    CL        CD       CDp       CM     Top_Xtr  Bot_Xtr
  ------ -------- --------- --------- -------- -------- --------
   0.297   0.3500   0.00536   0.00169  -0.0940   0.2045   0.5897
   0.664   0.4000   0.00572   0.00191  -0.0917   0.1408   0.6006
   1.030   0.4500   0.00606   0.00213  -0.0892   0.0971   0.6046
   1.382   0.5000   0.00635   0.00235  -0.0869   0.0699   0.6054
   1.726   0.5500   0.00663   0.00258  -0.0848   0.0513   0.6062
   2.056   0.6000   0.00686   0.00280  -0.0829   0.0423   0.6092
   2.384   0.6500   0.00710   0.00304  -0.0808   0.0358   0.6120
   2.716   0.7000   0.00736   0.00331  -0.0784   0.0315   0.6142
