  
       XFOIL         Version 6.97
  
 Calculated polar for: NC145                                           
  
 1 1 Reynolds number fixed          Mach number fixed         
  
 xtrf =   1.000 (top)        1.000 (bottom)  
 Mach =   0.500     Re =    25.000 e 6     Ncrit =   9.000
  
   alpha    CL        CD       CDp       CM     Top_Xtr  Bot_Xtr
  ------ -------- --------- --------- -------- -------- --------
  -0.353   0.3000   0.00493   0.00115  -0.1013   0.1558   0.5452
   0.014   0.3500   0.00504   0.00122  -0.1017   0.1254   0.5680
   0.389   0.4000   0.00520   0.00132  -0.1018   0.0949   0.5808
   0.762   0.4500   0.00536   0.00143  -0.1018   0.0756   0.5922
   1.137   0.5000   0.00553   0.00155  -0.1018   0.0583   0.5957
   1.512   0.5500   0.00570   0.00167  -0.1016   0.0478   0.5973
   1.884   0.6000   0.00586   0.00180  -0.1014   0.0416   0.5983
   2.257   0.6500   0.00603   0.00194  -0.1011   0.0357   0.5989
   2.631   0.7000   0.00622   0.00209  -0.1006   0.0309   0.5993
