  
       XFOIL         Version 6.97
  
 Calculated polar for: NC145                                           
  
 1 1 Reynolds number fixed          Mach number fixed         
  
 xtrf =   1.000 (top)        1.000 (bottom)  
 Mach =   0.700     Re =    25.000 e 6     Ncrit =   9.000
  
   alpha    CL        CD       CDp       CM     Top_Xtr  Bot_Xtr
  ------ -------- --------- --------- -------- -------- --------
  -0.274   0.3000   0.00511   0.00159  -0.1039   0.1812   0.5521
   0.036   0.3500   0.00532   0.00172  -0.1035   0.1377   0.5670
   0.349   0.4000   0.00554   0.00187  -0.1028   0.1070   0.5719
   0.658   0.4500   0.00575   0.00204  -0.1022   0.0795   0.5821
   0.980   0.5000   0.00600   0.00223  -0.1009   0.0599   0.5840
   1.295   0.5500   0.00621   0.00241  -0.0997   0.0493   0.5860
   1.605   0.6000   0.00641   0.00260  -0.0985   0.0418   0.5889
   1.912   0.6500   0.00661   0.00281  -0.0972   0.0361   0.5915
   2.220   0.7000   0.00683   0.00303  -0.0956   0.0318   0.5935
