  
       XFOIL         Version 6.97
  
 Calculated polar for: NE120                                           
  
 1 1 Reynolds number fixed          Mach number fixed         
  
 xtrf =   1.000 (top)        1.000 (bottom)  
 Mach =   0.600     Re =    20.000 e 6     Ncrit =   9.000
  
   alpha    CL        CD       CDp       CM     Top_Xtr  Bot_Xtr
  ------ -------- --------- --------- -------- -------- --------
  -1.133   0.3000   0.00571   0.00150  -0.1268   0.2158   0.2798
  -0.837   0.3500   0.00515   0.00127  -0.1295   0.1708   0.4836
  -0.486   0.4000   0.00524   0.00133  -0.1294   0.1337   0.5165
  -0.131   0.4500   0.00537   0.00142  -0.1291   0.1008   0.5407
   0.222   0.5000   0.00553   0.00153  -0.1287   0.0771   0.5542
   0.573   0.5500   0.00569   0.00165  -0.1282   0.0641   0.5582
   0.923   0.6000   0.00585   0.00177  -0.1276   0.0548   0.5602
   1.269   0.6500   0.00599   0.00189  -0.1270   0.0512   0.5639
   1.615   0.7000   0.00615   0.00204  -0.1262   0.0443   0.5693
