  
       XFOIL         Version 6.97
  
 Calculated polar for: NC100                                           
  
 1 1 Reynolds number fixed          Mach number fixed         
  
 xtrf =   1.000 (top)        1.000 (bottom)  
 Mach =   0.700     Re =    25.000 e 6     Ncrit =   9.000
  
   alpha    CL        CD       CDp       CM     Top_Xtr  Bot_Xtr
  ------ -------- --------- --------- -------- -------- --------
  -0.904   0.3000   0.00549   0.00133  -0.1247   0.3578   0.0360
  -0.550   0.3500   0.00567   0.00139  -0.1232   0.2780   0.0751
  -0.215   0.4000   0.00578   0.00148  -0.1224   0.2050   0.1580
   0.106   0.4500   0.00581   0.00159  -0.1223   0.1407   0.2728
   0.694   0.5500   0.00547   0.00174  -0.1239   0.0724   0.5996
   1.024   0.6000   0.00566   0.00191  -0.1225   0.0502   0.6208
   1.351   0.6500   0.00585   0.00209  -0.1210   0.0360   0.6306
   1.675   0.7000   0.00606   0.00228  -0.1193   0.0265   0.6318
