  
       XFOIL         Version 6.97
  
 Calculated polar for: NC140                                           
  
 1 1 Reynolds number fixed          Mach number fixed         
  
 xtrf =   1.000 (top)        1.000 (bottom)  
 Mach =   0.600     Re =    15.000 e 6     Ncrit =   9.000
  
   alpha    CL        CD       CDp       CM     Top_Xtr  Bot_Xtr
  ------ -------- --------- --------- -------- -------- --------
  -0.481   0.3000   0.00478   0.00122  -0.1072   0.3005   0.5746
  -0.094   0.3500   0.00520   0.00140  -0.1060   0.2062   0.5847
   0.268   0.4000   0.00547   0.00154  -0.1054   0.1556   0.5934
   0.633   0.4500   0.00575   0.00171  -0.1047   0.1098   0.5999
   0.992   0.5000   0.00600   0.00187  -0.1039   0.0813   0.6007
   1.349   0.5500   0.00624   0.00203  -0.1032   0.0601   0.6012
   1.704   0.6000   0.00647   0.00221  -0.1023   0.0475   0.6023
   2.060   0.6500   0.00666   0.00238  -0.1013   0.0402   0.6054
   2.422   0.7000   0.00685   0.00257  -0.0998   0.0351   0.6083
