  
       XFOIL         Version 6.97
  
 Calculated polar for: NC145                                           
  
 1 1 Reynolds number fixed          Mach number fixed         
  
 xtrf =   1.000 (top)        1.000 (bottom)  
 Mach =   0.500     Re =    15.000 e 6     Ncrit =   9.000
  
   alpha    CL        CD       CDp       CM     Top_Xtr  Bot_Xtr
  ------ -------- --------- --------- -------- -------- --------
  -0.320   0.3000   0.00493   0.00116  -0.1003   0.2383   0.5820
   0.078   0.3500   0.00525   0.00129  -0.0998   0.1748   0.5876
   0.466   0.4000   0.00550   0.00143  -0.0995   0.1284   0.5982
   0.852   0.4500   0.00574   0.00156  -0.0992   0.0948   0.5992
   1.238   0.5000   0.00597   0.00170  -0.0988   0.0705   0.5995
   1.618   0.5500   0.00618   0.00185  -0.0985   0.0553   0.6024
   1.995   0.6000   0.00637   0.00200  -0.0982   0.0454   0.6057
   2.371   0.6500   0.00656   0.00216  -0.0978   0.0394   0.6082
   2.746   0.7000   0.00674   0.00233  -0.0973   0.0347   0.6101
