  
       XFOIL         Version 6.97
  
 Calculated polar for: NE100                                           
  
 1 1 Reynolds number fixed          Mach number fixed         
  
 xtrf =   1.000 (top)        1.000 (bottom)  
 Mach =   0.400     Re =    20.000 e 6     Ncrit =   9.000
  
   alpha    CL        CD       CDp       CM     Top_Xtr  Bot_Xtr
  ------ -------- --------- --------- -------- -------- --------
  -0.987   0.3500   0.00589   0.00108  -0.1265   0.1971   0.0674
  -0.208   0.4500   0.00510   0.00099  -0.1286   0.1192   0.5021
   0.200   0.5000   0.00516   0.00107  -0.1287   0.0900   0.5533
   0.606   0.5500   0.00528   0.00115  -0.1286   0.0749   0.5717
   1.011   0.6000   0.00541   0.00125  -0.1285   0.0639   0.5797
   1.418   0.6500   0.00557   0.00136  -0.1282   0.0533   0.5835
   1.821   0.7000   0.00570   0.00147  -0.1280   0.0504   0.5910
