  
       XFOIL         Version 6.97
  
 Calculated polar for: NC140                                           
  
 1 1 Reynolds number fixed          Mach number fixed         
  
 xtrf =   1.000 (top)        1.000 (bottom)  
 Mach =   0.500     Re =    20.000 e 6     Ncrit =   9.000
  
   alpha    CL        CD       CDp       CM     Top_Xtr  Bot_Xtr
  ------ -------- --------- --------- -------- -------- --------
  -0.445   0.3000   0.00489   0.00112  -0.1039   0.1968   0.5585
  -0.072   0.3500   0.00503   0.00119  -0.1041   0.1597   0.5786
   0.314   0.4000   0.00526   0.00131  -0.1039   0.1154   0.5859
   0.690   0.4500   0.00543   0.00143  -0.1039   0.0882   0.5995
   1.072   0.5000   0.00564   0.00156  -0.1037   0.0669   0.6005
   1.449   0.5500   0.00583   0.00168  -0.1035   0.0532   0.6011
   1.826   0.6000   0.00601   0.00182  -0.1032   0.0442   0.6014
   2.200   0.6500   0.00619   0.00196  -0.1029   0.0379   0.6036
   2.574   0.7000   0.00637   0.00212  -0.1024   0.0325   0.6070
