  
       XFOIL         Version 6.97
  
 Calculated polar for: NE090                                           
  
 1 1 Reynolds number fixed          Mach number fixed         
  
 xtrf =   1.000 (top)        1.000 (bottom)  
 Mach =   0.400     Re =    20.000 e 6     Ncrit =   9.000
  
   alpha    CL        CD       CDp       CM     Top_Xtr  Bot_Xtr
  ------ -------- --------- --------- -------- -------- --------
  -1.574   0.3000   0.00570   0.00098  -0.1313   0.2709   0.0116
  -1.155   0.3500   0.00586   0.00100  -0.1310   0.2102   0.0153
  -0.746   0.4000   0.00593   0.00101  -0.1310   0.1729   0.0306
  -0.336   0.4500   0.00595   0.00106  -0.1310   0.1342   0.0974
   0.049   0.5000   0.00531   0.00103  -0.1324   0.1021   0.4479
   0.455   0.5500   0.00522   0.00109  -0.1326   0.0795   0.5591
   0.862   0.6000   0.00532   0.00118  -0.1325   0.0677   0.5828
   1.266   0.6500   0.00544   0.00127  -0.1323   0.0605   0.5884
   1.674   0.7000   0.00559   0.00139  -0.1320   0.0500   0.5983
