  
       XFOIL         Version 6.97
  
 Calculated polar for: NE130                                           
  
 1 1 Reynolds number fixed          Mach number fixed         
  
 xtrf =   1.000 (top)        1.000 (bottom)  
 Mach =   0.500     Re =    20.000 e 6     Ncrit =   9.000
  
   alpha    CL        CD       CDp       CM     Top_Xtr  Bot_Xtr
  ------ -------- --------- --------- -------- -------- --------
  -0.916   0.3000   0.00503   0.00111  -0.1185   0.1730   0.4897
  -0.532   0.3500   0.00513   0.00116  -0.1186   0.1289   0.5251
  -0.151   0.4000   0.00526   0.00124  -0.1185   0.0977   0.5458
   0.232   0.4500   0.00542   0.00134  -0.1183   0.0772   0.5539
   0.612   0.5000   0.00558   0.00144  -0.1181   0.0607   0.5602
   0.991   0.5500   0.00572   0.00155  -0.1178   0.0527   0.5643
   1.366   0.6000   0.00586   0.00167  -0.1175   0.0485   0.5668
   1.744   0.6500   0.00602   0.00180  -0.1171   0.0426   0.5680
   2.118   0.7000   0.00615   0.00192  -0.1167   0.0412   0.5732
