  
       XFOIL         Version 6.97
  
 Calculated polar for: NE130                                           
  
 1 1 Reynolds number fixed          Mach number fixed         
  
 xtrf =   1.000 (top)        1.000 (bottom)  
 Mach =   0.500     Re =    10.000 e 6     Ncrit =   9.000
  
   alpha    CL        CD       CDp       CM     Top_Xtr  Bot_Xtr
  ------ -------- --------- --------- -------- -------- --------
  -0.878   0.3000   0.00502   0.00111  -0.1174   0.2893   0.5452
  -0.469   0.3500   0.00532   0.00122  -0.1167   0.2187   0.5594
  -0.056   0.4000   0.00567   0.00137  -0.1157   0.1491   0.5680
   0.341   0.4500   0.00593   0.00151  -0.1152   0.1070   0.5737
   0.733   0.5000   0.00616   0.00164  -0.1147   0.0804   0.5779
   1.122   0.5500   0.00638   0.00179  -0.1141   0.0618   0.5809
   1.506   0.6000   0.00657   0.00194  -0.1136   0.0539   0.5827
   1.887   0.6500   0.00673   0.00208  -0.1131   0.0491   0.5855
   2.270   0.7000   0.00693   0.00226  -0.1123   0.0430   0.5904
