  
       XFOIL         Version 6.97
  
 Calculated polar for: NC090                                           
  
 1 1 Reynolds number fixed          Mach number fixed         
  
 xtrf =   1.000 (top)        1.000 (bottom)  
 Mach =   0.800     Re =    20.000 e 6     Ncrit =   9.000
  
   alpha    CL        CD       CDp       CM     Top_Xtr  Bot_Xtr
  ------ -------- --------- --------- -------- -------- --------
  -2.201   0.3000   0.00493   0.00252  -0.1947   0.9009   0.0064
  -0.814   0.3500   0.00553   0.00185  -0.1431   0.5494   0.0064
  -0.397   0.4000   0.00617   0.00208  -0.1361   0.3957   0.0068
  -0.064   0.4500   0.00660   0.00226  -0.1326   0.2956   0.0086
   0.276   0.5000   0.00712   0.00253  -0.1290   0.1683   0.0299
   0.518   0.5500   0.00706   0.00268  -0.1296   0.1165   0.2049
   0.698   0.6000   0.00644   0.00273  -0.1339   0.0846   0.5761
   0.972   0.6500   0.00665   0.00297  -0.1323   0.0495   0.6277
   1.249   0.7000   0.00693   0.00324  -0.1301   0.0284   0.6443
