  
       XFOIL         Version 6.97
  
 Calculated polar for: NC145                                           
  
 1 1 Reynolds number fixed          Mach number fixed         
  
 xtrf =   1.000 (top)        1.000 (bottom)  
 Mach =   0.800     Re =    10.000 e 6     Ncrit =   9.000
  
   alpha    CL        CD       CDp       CM     Top_Xtr  Bot_Xtr
  ------ -------- --------- --------- -------- -------- --------
   0.363   0.3500   0.00655   0.00300  -0.0920   0.2711   0.5847
   1.095   0.4500   0.00813   0.00420  -0.0816   0.0982   0.5941
   1.390   0.5000   0.00862   0.00464  -0.0788   0.0697   0.5955
   1.677   0.5500   0.00909   0.00510  -0.0760   0.0525   0.5966
   1.951   0.6000   0.00951   0.00554  -0.0735   0.0442   0.5975
   2.213   0.6500   0.00992   0.00598  -0.0710   0.0397   0.5982
   2.483   0.7000   0.01041   0.00653  -0.0679   0.0361   0.5988
