  
       XFOIL         Version 6.97
  
 Calculated polar for: NE100                                           
  
 1 1 Reynolds number fixed          Mach number fixed         
  
 xtrf =   1.000 (top)        1.000 (bottom)  
 Mach =   0.700     Re =    10.000 e 6     Ncrit =   9.000
  
   alpha    CL        CD       CDp       CM     Top_Xtr  Bot_Xtr
  ------ -------- --------- --------- -------- -------- --------
  -2.136   0.3000   0.00452   0.00132  -0.1672   0.8647   0.0130
  -0.798   0.4000   0.00665   0.00188  -0.1419   0.3118   0.0537
  -0.593   0.4500   0.00573   0.00165  -0.1474   0.2525   0.4501
  -0.253   0.5000   0.00587   0.00176  -0.1464   0.1844   0.5233
   0.100   0.5500   0.00616   0.00194  -0.1445   0.1217   0.5569
   0.439   0.6000   0.00638   0.00210  -0.1429   0.0893   0.5759
   0.775   0.6500   0.00661   0.00228  -0.1411   0.0709   0.5810
