  
       XFOIL         Version 6.97
  
 Calculated polar for: NE110                                           
  
 1 1 Reynolds number fixed          Mach number fixed         
  
 xtrf =   1.000 (top)        1.000 (bottom)  
 Mach =   0.800     Re =    25.000 e 6     Ncrit =   9.000
  
   alpha    CL        CD       CDp       CM     Top_Xtr  Bot_Xtr
  ------ -------- --------- --------- -------- -------- --------
  -0.838   0.3000   0.00718   0.00291  -0.1318   0.2054   0.0264
  -0.575   0.3500   0.00732   0.00297  -0.1310   0.1655   0.0343
  -0.322   0.4000   0.00742   0.00303  -0.1307   0.1325   0.0567
  -0.046   0.5000   0.00634   0.00265  -0.1423   0.0850   0.4871
   0.212   0.5500   0.00648   0.00280  -0.1413   0.0710   0.5107
   0.468   0.6000   0.00661   0.00296  -0.1401   0.0632   0.5250
   0.724   0.6500   0.00679   0.00314  -0.1387   0.0540   0.5369
   0.975   0.7000   0.00694   0.00332  -0.1373   0.0520   0.5452
