  
       XFOIL         Version 6.97
  
 Calculated polar for: NE110                                           
  
 1 1 Reynolds number fixed          Mach number fixed         
  
 xtrf =   1.000 (top)        1.000 (bottom)  
 Mach =   0.700     Re =    20.000 e 6     Ncrit =   9.000
  
   alpha    CL        CD       CDp       CM     Top_Xtr  Bot_Xtr
  ------ -------- --------- --------- -------- -------- --------
  -1.258   0.3000   0.00643   0.00193  -0.1368   0.2522   0.0331
  -0.446   0.4500   0.00553   0.00164  -0.1424   0.1286   0.4893
  -0.125   0.5000   0.00566   0.00175  -0.1416   0.0961   0.5198
   0.202   0.5500   0.00579   0.00186  -0.1404   0.0770   0.5383
   0.534   0.6000   0.00592   0.00198  -0.1388   0.0643   0.5524
   0.862   0.6500   0.00608   0.00212  -0.1372   0.0549   0.5585
   1.182   0.7000   0.00623   0.00228  -0.1357   0.0511   0.5624
