  
       XFOIL         Version 6.97
  
 Calculated polar for: NE100                                           
  
 1 1 Reynolds number fixed          Mach number fixed         
  
 xtrf =   1.000 (top)        1.000 (bottom)  
 Mach =   0.700     Re =    20.000 e 6     Ncrit =   9.000
  
   alpha    CL        CD       CDp       CM     Top_Xtr  Bot_Xtr
  ------ -------- --------- --------- -------- -------- --------
  -1.562   0.3000   0.00612   0.00173  -0.1481   0.3107   0.0130
  -1.223   0.3500   0.00631   0.00176  -0.1468   0.2424   0.0171
  -0.898   0.4000   0.00643   0.00178  -0.1460   0.1942   0.0283
  -0.578   0.4500   0.00652   0.00183  -0.1454   0.1553   0.0569
  -0.346   0.5000   0.00581   0.00170  -0.1492   0.1229   0.3937
  -0.045   0.5500   0.00572   0.00174  -0.1495   0.0905   0.4969
   0.266   0.6000   0.00579   0.00184  -0.1489   0.0747   0.5362
   0.581   0.6500   0.00591   0.00197  -0.1480   0.0633   0.5556
   0.899   0.7000   0.00607   0.00211  -0.1467   0.0543   0.5628
