  
       XFOIL         Version 6.97
  
 Calculated polar for: NC145                                           
  
 1 1 Reynolds number fixed          Mach number fixed         
  
 xtrf =   1.000 (top)        1.000 (bottom)  
 Mach =   0.700     Re =    10.000 e 6     Ncrit =   9.000
  
   alpha    CL        CD       CDp       CM     Top_Xtr  Bot_Xtr
  ------ -------- --------- --------- -------- -------- --------
  -0.297   0.3000   0.00467   0.00140  -0.1038   0.4449   0.5831
   0.140   0.3500   0.00553   0.00183  -0.0993   0.2854   0.5918
   0.543   0.4000   0.00622   0.00222  -0.0957   0.1722   0.5977
   0.894   0.4500   0.00663   0.00248  -0.0937   0.1200   0.5986
   1.238   0.5000   0.00702   0.00276  -0.0917   0.0807   0.5992
   1.570   0.5500   0.00734   0.00303  -0.0900   0.0593   0.6001
   1.894   0.6000   0.00763   0.00330  -0.0883   0.0481   0.6027
   2.216   0.6500   0.00791   0.00358  -0.0864   0.0409   0.6052
   2.535   0.7000   0.00820   0.00389  -0.0844   0.0359   0.6071
