  
       XFOIL         Version 6.97
  
 Calculated polar for: NC140                                           
  
 1 1 Reynolds number fixed          Mach number fixed         
  
 xtrf =   1.000 (top)        1.000 (bottom)  
 Mach =   0.800     Re =    20.000 e 6     Ncrit =   9.000
  
   alpha    CL        CD       CDp       CM     Top_Xtr  Bot_Xtr
  ------ -------- --------- --------- -------- -------- --------
  -0.216   0.3000   0.00554   0.00231  -0.1072   0.2733   0.5562
   0.408   0.4000   0.00649   0.00296  -0.1011   0.1319   0.5751
   0.692   0.4500   0.00683   0.00326  -0.0990   0.0984   0.5826
   0.977   0.5000   0.00720   0.00358  -0.0965   0.0715   0.5856
   1.252   0.5500   0.00754   0.00390  -0.0943   0.0535   0.5860
   1.518   0.6000   0.00786   0.00421  -0.0922   0.0450   0.5875
   1.780   0.6500   0.00818   0.00455  -0.0900   0.0384   0.5897
   2.033   0.7000   0.00848   0.00488  -0.0878   0.0351   0.5917
