  
       XFOIL         Version 6.97
  
 Calculated polar for: NC145                                           
  
 1 1 Reynolds number fixed          Mach number fixed         
  
 xtrf =   1.000 (top)        1.000 (bottom)  
 Mach =   0.800     Re =    20.000 e 6     Ncrit =   9.000
  
   alpha    CL        CD       CDp       CM     Top_Xtr  Bot_Xtr
  ------ -------- --------- --------- -------- -------- --------
  -0.022   0.3000   0.00586   0.00255  -0.0989   0.2247   0.5642
   0.293   0.3500   0.00635   0.00288  -0.0956   0.1558   0.5686
   0.592   0.4000   0.00676   0.00321  -0.0930   0.1091   0.5777
   0.874   0.4500   0.00711   0.00353  -0.0907   0.0816   0.5822
   1.154   0.5000   0.00748   0.00385  -0.0884   0.0598   0.5835
   1.426   0.5500   0.00782   0.00418  -0.0861   0.0488   0.5838
   1.690   0.6000   0.00814   0.00452  -0.0840   0.0420   0.5844
   1.947   0.6500   0.00846   0.00486  -0.0818   0.0365   0.5865
   2.200   0.7000   0.00879   0.00523  -0.0795   0.0339   0.5888
