  
       XFOIL         Version 6.97
  
 Calculated polar for: NE110                                           
  
 1 1 Reynolds number fixed          Mach number fixed         
  
 xtrf =   1.000 (top)        1.000 (bottom)  
 Mach =   0.600     Re =    20.000 e 6     Ncrit =   9.000
  
   alpha    CL        CD       CDp       CM     Top_Xtr  Bot_Xtr
  ------ -------- --------- --------- -------- -------- --------
  -0.969   0.3500   0.00617   0.00154  -0.1319   0.1991   0.0980
  -0.693   0.4000   0.00526   0.00128  -0.1356   0.1531   0.4578
  -0.345   0.4500   0.00528   0.00132  -0.1357   0.1198   0.5146
   0.009   0.5000   0.00541   0.00142  -0.1354   0.0909   0.5397
   0.361   0.5500   0.00554   0.00153  -0.1350   0.0731   0.5586
   0.710   0.6000   0.00569   0.00164  -0.1345   0.0631   0.5628
   1.060   0.6500   0.00585   0.00176  -0.1339   0.0538   0.5648
   1.406   0.7000   0.00600   0.00190  -0.1332   0.0494   0.5713
