  
       XFOIL         Version 6.97
  
 Calculated polar for: NC140                                           
  
 1 1 Reynolds number fixed          Mach number fixed         
  
 xtrf =   1.000 (top)        1.000 (bottom)  
 Mach =   0.900     Re =    30.000 e 6     Ncrit =   9.000
  
   alpha    CL        CD       CDp       CM     Top_Xtr  Bot_Xtr
  ------ -------- --------- --------- -------- -------- --------
   0.528   0.3000   0.00946   0.00672  -0.0790   0.1579   0.5542
   0.754   0.3500   0.01029   0.00749  -0.0754   0.1111   0.5620
   0.959   0.4000   0.01098   0.00817  -0.0725   0.0822   0.5666
   1.153   0.4500   0.01162   0.00880  -0.0699   0.0624   0.5693
   1.499   0.5500   0.01265   0.00990  -0.0660   0.0447   0.5753
   1.659   0.6000   0.01310   0.01040  -0.0640   0.0420   0.5764
   1.820   0.6500   0.01360   0.01098  -0.0613   0.0437   0.5773
