  
       XFOIL         Version 6.97
  
 Calculated polar for: NE140                                           
  
 1 1 Reynolds number fixed          Mach number fixed         
  
 xtrf =   1.000 (top)        1.000 (bottom)  
 Mach =   0.700     Re =    20.000 e 6     Ncrit =   9.000
  
   alpha    CL        CD       CDp       CM     Top_Xtr  Bot_Xtr
  ------ -------- --------- --------- -------- -------- --------
  -0.875   0.3000   0.00553   0.00176  -0.1285   0.1520   0.4995
  -0.570   0.3500   0.00571   0.00186  -0.1283   0.1061   0.5190
  -0.268   0.4000   0.00588   0.00197  -0.1280   0.0789   0.5299
   0.032   0.4500   0.00604   0.00210  -0.1277   0.0614   0.5428
   0.334   0.5000   0.00621   0.00224  -0.1271   0.0513   0.5448
   0.638   0.5500   0.00636   0.00238  -0.1263   0.0466   0.5460
   0.954   0.6000   0.00652   0.00253  -0.1249   0.0417   0.5495
   1.261   0.6500   0.00666   0.00268  -0.1236   0.0407   0.5539
   1.561   0.7000   0.00682   0.00286  -0.1224   0.0388   0.5571
