  
       XFOIL         Version 6.97
  
 Calculated polar for: NE110                                           
  
 1 1 Reynolds number fixed          Mach number fixed         
  
 xtrf =   1.000 (top)        1.000 (bottom)  
 Mach =   0.400     Re =    10.000 e 6     Ncrit =   9.000
  
   alpha    CL        CD       CDp       CM     Top_Xtr  Bot_Xtr
  ------ -------- --------- --------- -------- -------- --------
  -1.259   0.3000   0.00477   0.00088  -0.1238   0.3725   0.4722
  -0.836   0.3500   0.00487   0.00092  -0.1237   0.3004   0.5377
  -0.402   0.4000   0.00518   0.00103  -0.1231   0.2179   0.5638
   0.020   0.4500   0.00543   0.00114  -0.1227   0.1640   0.5816
   0.443   0.5000   0.00571   0.00127  -0.1222   0.1150   0.5886
   0.858   0.5500   0.00594   0.00140  -0.1219   0.0874   0.5928
   1.271   0.6000   0.00615   0.00153  -0.1216   0.0687   0.5958
   1.678   0.6500   0.00632   0.00166  -0.1213   0.0604   0.6022
   2.084   0.7000   0.00648   0.00180  -0.1210   0.0534   0.6065
