  
       XFOIL         Version 6.97
  
 Calculated polar for: NE130                                           
  
 1 1 Reynolds number fixed          Mach number fixed         
  
 xtrf =   1.000 (top)        1.000 (bottom)  
 Mach =   0.600     Re =    30.000 e 6     Ncrit =   9.000
  
   alpha    CL        CD       CDp       CM     Top_Xtr  Bot_Xtr
  ------ -------- --------- --------- -------- -------- --------
  -0.953   0.3000   0.00537   0.00141  -0.1229   0.1378   0.3759
  -0.633   0.3500   0.00516   0.00133  -0.1241   0.1068   0.4712
  -0.293   0.4000   0.00518   0.00137  -0.1243   0.0830   0.5116
   0.050   0.4500   0.00526   0.00144  -0.1243   0.0678   0.5332
   0.396   0.5000   0.00539   0.00154  -0.1239   0.0568   0.5431
   0.740   0.5500   0.00550   0.00164  -0.1236   0.0499   0.5481
   1.086   0.6000   0.00565   0.00176  -0.1230   0.0444   0.5511
   1.428   0.6500   0.00577   0.00188  -0.1224   0.0421   0.5524
   1.772   0.7000   0.00592   0.00201  -0.1216   0.0395   0.5555
