  
       XFOIL         Version 6.97
  
 Calculated polar for: NC110                                           
  
 1 1 Reynolds number fixed          Mach number fixed         
  
 xtrf =   1.000 (top)        1.000 (bottom)  
 Mach =   0.500     Re =    20.000 e 6     Ncrit =   9.000
  
   alpha    CL        CD       CDp       CM     Top_Xtr  Bot_Xtr
  ------ -------- --------- --------- -------- -------- --------
  -0.425   0.3500   0.00551   0.00114  -0.1130   0.2195   0.2653
  -0.052   0.4000   0.00516   0.00111  -0.1140   0.1641   0.4795
   0.335   0.4500   0.00508   0.00116  -0.1142   0.1178   0.5903
   0.731   0.5000   0.00523   0.00127  -0.1138   0.0855   0.6197
   1.128   0.5500   0.00543   0.00140  -0.1132   0.0612   0.6271
   1.524   0.6000   0.00564   0.00154  -0.1124   0.0436   0.6283
   1.915   0.6500   0.00582   0.00168  -0.1117   0.0353   0.6301
   2.306   0.7000   0.00601   0.00184  -0.1109   0.0288   0.6348
