  
       XFOIL         Version 6.97
  
 Calculated polar for: NE130                                           
  
 1 1 Reynolds number fixed          Mach number fixed         
  
 xtrf =   1.000 (top)        1.000 (bottom)  
 Mach =   0.700     Re =    10.000 e 6     Ncrit =   9.000
  
   alpha    CL        CD       CDp       CM     Top_Xtr  Bot_Xtr
  ------ -------- --------- --------- -------- -------- --------
  -0.730   0.3000   0.00538   0.00162  -0.1216   0.2912   0.5305
  -0.349   0.3500   0.00580   0.00183  -0.1189   0.2023   0.5449
   0.017   0.4000   0.00619   0.00205  -0.1165   0.1376   0.5549
   0.370   0.4500   0.00654   0.00228  -0.1145   0.0892   0.5623
   0.701   0.5000   0.00679   0.00247  -0.1130   0.0692   0.5653
   1.026   0.5500   0.00702   0.00267  -0.1115   0.0581   0.5672
   1.348   0.6000   0.00724   0.00288  -0.1099   0.0504   0.5693
   1.669   0.6500   0.00746   0.00310  -0.1082   0.0465   0.5740
   1.988   0.7000   0.00769   0.00335  -0.1062   0.0423   0.5773
