  
       XFOIL         Version 6.97
  
 Calculated polar for: NC130                                           
  
 1 1 Reynolds number fixed          Mach number fixed         
  
 xtrf =   1.000 (top)        1.000 (bottom)  
 Mach =   0.600     Re =    20.000 e 6     Ncrit =   9.000
  
   alpha    CL        CD       CDp       CM     Top_Xtr  Bot_Xtr
  ------ -------- --------- --------- -------- -------- --------
  -0.259   0.3000   0.00478   0.00114  -0.0999   0.2138   0.5588
   0.120   0.3500   0.00498   0.00125  -0.0990   0.1625   0.5807
   0.498   0.4000   0.00519   0.00137  -0.0979   0.1235   0.5902
   0.879   0.4500   0.00543   0.00153  -0.0966   0.0858   0.6041
   1.255   0.5000   0.00564   0.00167  -0.0954   0.0661   0.6051
   1.629   0.5500   0.00586   0.00183  -0.0940   0.0500   0.6057
   1.998   0.6000   0.00605   0.00200  -0.0927   0.0418   0.6076
   2.370   0.6500   0.00625   0.00218  -0.0911   0.0350   0.6112
   2.745   0.7000   0.00646   0.00238  -0.0892   0.0301   0.6143
