  
       XFOIL         Version 6.97
  
 Calculated polar for: NE140                                           
  
 1 1 Reynolds number fixed          Mach number fixed         
  
 xtrf =   1.000 (top)        1.000 (bottom)  
 Mach =   0.500     Re =    10.000 e 6     Ncrit =   9.000
  
   alpha    CL        CD       CDp       CM     Top_Xtr  Bot_Xtr
  ------ -------- --------- --------- -------- -------- --------
  -0.789   0.3000   0.00523   0.00122  -0.1162   0.2563   0.5495
  -0.388   0.3500   0.00562   0.00138  -0.1157   0.1707   0.5616
  -0.003   0.4000   0.00589   0.00150  -0.1155   0.1212   0.5675
   0.377   0.4500   0.00613   0.00163  -0.1153   0.0890   0.5714
   0.756   0.5000   0.00636   0.00178  -0.1152   0.0658   0.5743
   1.130   0.5500   0.00655   0.00192  -0.1150   0.0547   0.5761
   1.501   0.6000   0.00674   0.00206  -0.1148   0.0482   0.5771
   1.871   0.6500   0.00691   0.00222  -0.1146   0.0444   0.5819
   2.238   0.7000   0.00708   0.00238  -0.1143   0.0411   0.5854
