  
       XFOIL         Version 6.97
  
 Calculated polar for: NC145                                           
  
 1 1 Reynolds number fixed          Mach number fixed         
  
 xtrf =   1.000 (top)        1.000 (bottom)  
 Mach =   0.700     Re =    20.000 e 6     Ncrit =   9.000
  
   alpha    CL        CD       CDp       CM     Top_Xtr  Bot_Xtr
  ------ -------- --------- --------- -------- -------- --------
  -0.257   0.3000   0.00513   0.00160  -0.1033   0.2146   0.5658
   0.075   0.3500   0.00545   0.00178  -0.1021   0.1547   0.5730
   0.389   0.4000   0.00569   0.00194  -0.1014   0.1194   0.5812
   0.720   0.4500   0.00598   0.00215  -0.1000   0.0847   0.5853
   1.038   0.5000   0.00621   0.00234  -0.0988   0.0657   0.5899
   1.355   0.5500   0.00645   0.00254  -0.0976   0.0507   0.5922
   1.667   0.6000   0.00666   0.00275  -0.0963   0.0427   0.5940
   1.978   0.6500   0.00689   0.00297  -0.0948   0.0365   0.5955
   2.286   0.7000   0.00711   0.00320  -0.0932   0.0333   0.5966
