  
       XFOIL         Version 6.97
  
 Calculated polar for: NC120                                           
  
 1 1 Reynolds number fixed          Mach number fixed         
  
 xtrf =   1.000 (top)        1.000 (bottom)  
 Mach =   0.700     Re =    10.000 e 6     Ncrit =   9.000
  
   alpha    CL        CD       CDp       CM     Top_Xtr  Bot_Xtr
  ------ -------- --------- --------- -------- -------- --------
  -0.606   0.3000   0.00373   0.00094  -0.1145   0.6122   0.5782
  -0.089   0.3500   0.00465   0.00134  -0.1074   0.4201   0.6007
   0.369   0.4000   0.00546   0.00172  -0.1023   0.2631   0.6114
   0.769   0.4500   0.00599   0.00202  -0.0989   0.1680   0.6200
   1.145   0.5000   0.00643   0.00229  -0.0961   0.1074   0.6219
   1.502   0.5500   0.00679   0.00255  -0.0937   0.0715   0.6234
   1.842   0.6000   0.00708   0.00280  -0.0916   0.0527   0.6244
   2.179   0.6500   0.00738   0.00306  -0.0894   0.0401   0.6251
   2.509   0.7000   0.00764   0.00334  -0.0871   0.0337   0.6280
