  
       XFOIL         Version 6.97
  
 Calculated polar for: NC130                                           
  
 1 1 Reynolds number fixed          Mach number fixed         
  
 xtrf =   1.000 (top)        1.000 (bottom)  
 Mach =   0.900     Re =    10.000 e 6     Ncrit =   9.000
  
   alpha    CL        CD       CDp       CM     Top_Xtr  Bot_Xtr
  ------ -------- --------- --------- -------- -------- --------
   0.147   0.3000   0.00568   0.00336  -0.0962   0.6219   0.5728
   1.396   0.3500   0.01194   0.00865  -0.0411   0.1255   0.5957
   1.646   0.4000   0.01292   0.00958  -0.0364   0.0828   0.5972
   1.861   0.4500   0.01368   0.01035  -0.0328   0.0609   0.5983
   2.055   0.5000   0.01433   0.01105  -0.0297   0.0518   0.5992
   2.219   0.5500   0.01488   0.01168  -0.0274   0.0504   0.6000
