  
       XFOIL         Version 6.97
  
 Calculated polar for: NC100                                           
  
 1 1 Reynolds number fixed          Mach number fixed         
  
 xtrf =   1.000 (top)        1.000 (bottom)  
 Mach =   0.700     Re =    20.000 e 6     Ncrit =   9.000
  
   alpha    CL        CD       CDp       CM     Top_Xtr  Bot_Xtr
  ------ -------- --------- --------- -------- -------- --------
  -0.920   0.3000   0.00535   0.00129  -0.1249   0.4441   0.0422
   0.080   0.4500   0.00535   0.00152  -0.1241   0.1727   0.4928
   0.400   0.5000   0.00537   0.00164  -0.1238   0.1220   0.5973
   0.739   0.5500   0.00560   0.00181  -0.1223   0.0812   0.6193
   1.073   0.6000   0.00583   0.00200  -0.1208   0.0552   0.6315
   1.403   0.6500   0.00607   0.00219  -0.1191   0.0379   0.6338
   1.729   0.7000   0.00629   0.00239  -0.1174   0.0280   0.6384
