  
       XFOIL         Version 6.97
  
 Calculated polar for: NE100                                           
  
 1 1 Reynolds number fixed          Mach number fixed         
  
 xtrf =   1.000 (top)        1.000 (bottom)  
 Mach =   0.400     Re =    10.000 e 6     Ncrit =   9.000
  
   alpha    CL        CD       CDp       CM     Top_Xtr  Bot_Xtr
  ------ -------- --------- --------- -------- -------- --------
  -1.407   0.3000   0.00576   0.00107  -0.1262   0.4318   0.0545
  -1.005   0.3500   0.00510   0.00093  -0.1277   0.3286   0.4147
  -0.587   0.4000   0.00506   0.00095  -0.1278   0.2610   0.5228
  -0.158   0.4500   0.00530   0.00106  -0.1274   0.1855   0.5697
   0.263   0.5000   0.00553   0.00118  -0.1270   0.1341   0.5932
   0.683   0.5500   0.00579   0.00131  -0.1266   0.0974   0.5978
   1.094   0.6000   0.00598   0.00143  -0.1263   0.0770   0.6045
   1.505   0.6500   0.00616   0.00156  -0.1260   0.0643   0.6104
   1.915   0.7000   0.00636   0.00170  -0.1256   0.0550   0.6135
