  
       XFOIL         Version 6.97
  
 Calculated polar for: NC140                                           
  
 1 1 Reynolds number fixed          Mach number fixed         
  
 xtrf =   1.000 (top)        1.000 (bottom)  
 Mach =   0.700     Re =    25.000 e 6     Ncrit =   9.000
  
   alpha    CL        CD       CDp       CM     Top_Xtr  Bot_Xtr
  ------ -------- --------- --------- -------- -------- --------
  -0.098   0.3500   0.00522   0.00164  -0.1083   0.1518   0.5635
   0.215   0.4000   0.00543   0.00178  -0.1077   0.1184   0.5705
   0.524   0.4500   0.00564   0.00193  -0.1072   0.0868   0.5815
   0.838   0.5000   0.00586   0.00211  -0.1063   0.0681   0.5860
   1.154   0.5500   0.00608   0.00229  -0.1051   0.0524   0.5890
   1.466   0.6000   0.00628   0.00248  -0.1039   0.0440   0.5920
   1.774   0.6500   0.00648   0.00268  -0.1027   0.0378   0.5944
   2.083   0.7000   0.00670   0.00289  -0.1012   0.0325   0.5963
