  
       XFOIL         Version 6.97
  
 Calculated polar for: NE090                                           
  
 1 1 Reynolds number fixed          Mach number fixed         
  
 xtrf =   1.000 (top)        1.000 (bottom)  
 Mach =   0.400     Re =    30.000 e 6     Ncrit =   9.000
  
   alpha    CL        CD       CDp       CM     Top_Xtr  Bot_Xtr
  ------ -------- --------- --------- -------- -------- --------
  -1.178   0.3500   0.00566   0.00095  -0.1318   0.1623   0.0131
  -0.773   0.4000   0.00571   0.00097  -0.1318   0.1375   0.0223
  -0.364   0.4500   0.00577   0.00101  -0.1318   0.1022   0.0568
   0.038   0.5000   0.00575   0.00105  -0.1320   0.0858   0.1232
   0.424   0.5500   0.00519   0.00105  -0.1331   0.0700   0.4440
   0.823   0.6000   0.00505   0.00110  -0.1334   0.0614   0.5579
   1.228   0.6500   0.00517   0.00119  -0.1333   0.0538   0.5689
   1.631   0.7000   0.00529   0.00129  -0.1331   0.0489   0.5749
