  
       XFOIL         Version 6.97
  
 Calculated polar for: NC110                                           
  
 1 1 Reynolds number fixed          Mach number fixed         
  
 xtrf =   1.000 (top)        1.000 (bottom)  
 Mach =   0.800     Re =    10.000 e 6     Ncrit =   9.000
  
   alpha    CL        CD       CDp       CM     Top_Xtr  Bot_Xtr
  ------ -------- --------- --------- -------- -------- --------
  -0.873   0.3000   0.00501   0.00174  -0.1310   0.7660   0.1068
  -0.632   0.3500   0.00387   0.00128  -0.1347   0.6985   0.5108
  -0.165   0.4000   0.00444   0.00165  -0.1257   0.5637   0.5941
   0.412   0.4500   0.00595   0.00249  -0.1127   0.3063   0.6135
   0.808   0.5000   0.00679   0.00303  -0.1066   0.1765   0.6244
   1.140   0.5500   0.00737   0.00344  -0.1027   0.1074   0.6264
   1.440   0.6000   0.00779   0.00379  -0.0997   0.0708   0.6277
   1.729   0.6500   0.00819   0.00414  -0.0968   0.0490   0.6285
   2.012   0.7000   0.00856   0.00452  -0.0938   0.0375   0.6306
