  
       XFOIL         Version 6.97
  
 Calculated polar for: NE100                                           
  
 1 1 Reynolds number fixed          Mach number fixed         
  
 xtrf =   1.000 (top)        1.000 (bottom)  
 Mach =   0.600     Re =    10.000 e 6     Ncrit =   9.000
  
   alpha    CL        CD       CDp       CM     Top_Xtr  Bot_Xtr
  ------ -------- --------- --------- -------- -------- --------
  -1.581   0.3000   0.00581   0.00138  -0.1394   0.5002   0.0222
  -1.176   0.3500   0.00609   0.00143  -0.1378   0.3990   0.0456
  -0.847   0.4000   0.00541   0.00127  -0.1401   0.3003   0.4114
  -0.483   0.4500   0.00540   0.00131  -0.1400   0.2306   0.5193
  -0.106   0.5000   0.00565   0.00144  -0.1391   0.1609   0.5605
   0.263   0.5500   0.00590   0.00159  -0.1383   0.1151   0.5816
   0.629   0.6000   0.00617   0.00175  -0.1374   0.0826   0.5864
   0.985   0.6500   0.00636   0.00190  -0.1367   0.0679   0.5929
   1.338   0.7000   0.00653   0.00204  -0.1359   0.0603   0.5972
