  
       XFOIL         Version 6.97
  
 Calculated polar for: NC130                                           
  
 1 1 Reynolds number fixed          Mach number fixed         
  
 xtrf =   1.000 (top)        1.000 (bottom)  
 Mach =   0.600     Re =    15.000 e 6     Ncrit =   9.000
  
   alpha    CL        CD       CDp       CM     Top_Xtr  Bot_Xtr
  ------ -------- --------- --------- -------- -------- --------
  -0.227   0.3000   0.00474   0.00112  -0.0989   0.2707   0.5808
   0.562   0.4000   0.00536   0.00144  -0.0959   0.1424   0.6040
   0.953   0.4500   0.00567   0.00161  -0.0943   0.0977   0.6065
   1.333   0.5000   0.00590   0.00178  -0.0929   0.0717   0.6102
   1.712   0.5500   0.00615   0.00196  -0.0914   0.0527   0.6133
   2.090   0.6000   0.00636   0.00215  -0.0898   0.0428   0.6157
   2.467   0.6500   0.00658   0.00235  -0.0880   0.0359   0.6177
   2.842   0.7000   0.00681   0.00257  -0.0861   0.0309   0.6192
