  
       XFOIL         Version 6.97
  
 Calculated polar for: NE140                                           
  
 1 1 Reynolds number fixed          Mach number fixed         
  
 xtrf =   1.000 (top)        1.000 (bottom)  
 Mach =   0.600     Re =    25.000 e 6     Ncrit =   9.000
  
   alpha    CL        CD       CDp       CM     Top_Xtr  Bot_Xtr
  ------ -------- --------- --------- -------- -------- --------
  -0.894   0.3000   0.00525   0.00139  -0.1230   0.1228   0.4857
  -0.566   0.3500   0.00531   0.00143  -0.1236   0.0938   0.5148
  -0.233   0.4000   0.00542   0.00151  -0.1238   0.0746   0.5306
   0.100   0.4500   0.00554   0.00160  -0.1240   0.0580   0.5441
   0.436   0.5000   0.00569   0.00171  -0.1239   0.0488   0.5457
   0.770   0.5500   0.00583   0.00183  -0.1238   0.0454   0.5477
   1.101   0.6000   0.00595   0.00194  -0.1237   0.0413   0.5530
   1.429   0.6500   0.00607   0.00206  -0.1235   0.0405   0.5569
   1.761   0.7000   0.00623   0.00221  -0.1230   0.0376   0.5596
