  
       XFOIL         Version 6.97
  
 Calculated polar for: NE140                                           
  
 1 1 Reynolds number fixed          Mach number fixed         
  
 xtrf =   1.000 (top)        1.000 (bottom)  
 Mach =   0.600     Re =    10.000 e 6     Ncrit =   9.000
  
   alpha    CL        CD       CDp       CM     Top_Xtr  Bot_Xtr
  ------ -------- --------- --------- -------- -------- --------
  -0.469   0.3500   0.00573   0.00159  -0.1205   0.1796   0.5560
  -0.104   0.4000   0.00607   0.00175  -0.1199   0.1204   0.5608
   0.250   0.4500   0.00634   0.00191  -0.1193   0.0856   0.5630
   0.596   0.5000   0.00655   0.00206  -0.1190   0.0650   0.5677
   0.939   0.5500   0.00675   0.00222  -0.1186   0.0532   0.5711
   1.278   0.6000   0.00692   0.00237  -0.1182   0.0477   0.5738
   1.620   0.6500   0.00712   0.00255  -0.1176   0.0437   0.5756
   1.958   0.7000   0.00731   0.00274  -0.1168   0.0411   0.5767
