  
       XFOIL         Version 6.97
  
 Calculated polar for: NE120                                           
  
 1 1 Reynolds number fixed          Mach number fixed         
  
 xtrf =   1.000 (top)        1.000 (bottom)  
 Mach =   0.400     Re =    25.000 e 6     Ncrit =   9.000
  
   alpha    CL        CD       CDp       CM     Top_Xtr  Bot_Xtr
  ------ -------- --------- --------- -------- -------- --------
  -1.069   0.3000   0.00528   0.00108  -0.1187   0.1652   0.3376
  -0.688   0.3500   0.00499   0.00100  -0.1198   0.1362   0.4649
  -0.289   0.4000   0.00498   0.00102  -0.1202   0.1036   0.5242
   0.115   0.4500   0.00510   0.00110  -0.1203   0.0781   0.5477
   0.517   0.5000   0.00521   0.00118  -0.1203   0.0659   0.5585
   0.919   0.5500   0.00535   0.00127  -0.1203   0.0589   0.5604
   1.318   0.6000   0.00547   0.00136  -0.1203   0.0532   0.5662
   1.721   0.6500   0.00562   0.00148  -0.1201   0.0454   0.5715
   2.119   0.7000   0.00575   0.00159  -0.1200   0.0434   0.5745
