  
       XFOIL         Version 6.97
  
 Calculated polar for: NE140                                           
  
 1 1 Reynolds number fixed          Mach number fixed         
  
 xtrf =   1.000 (top)        1.000 (bottom)  
 Mach =   0.500     Re =    25.000 e 6     Ncrit =   9.000
  
   alpha    CL        CD       CDp       CM     Top_Xtr  Bot_Xtr
  ------ -------- --------- --------- -------- -------- --------
  -0.838   0.3000   0.00510   0.00118  -0.1177   0.1207   0.4937
  -0.113   0.4000   0.00525   0.00129  -0.1186   0.0749   0.5440
   0.257   0.4500   0.00542   0.00139  -0.1187   0.0574   0.5462
   0.623   0.5000   0.00555   0.00149  -0.1189   0.0489   0.5515
   0.986   0.5500   0.00567   0.00159  -0.1190   0.0457   0.5564
   1.350   0.6000   0.00580   0.00170  -0.1191   0.0413   0.5596
   1.712   0.6500   0.00593   0.00181  -0.1190   0.0404   0.5610
   2.078   0.7000   0.00609   0.00195  -0.1188   0.0370   0.5621
