  
       XFOIL         Version 6.97
  
 Calculated polar for: NC100                                           
  
 1 1 Reynolds number fixed          Mach number fixed         
  
 xtrf =   1.000 (top)        1.000 (bottom)  
 Mach =   0.500     Re =    30.000 e 6     Ncrit =   9.000
  
   alpha    CL        CD       CDp       CM     Top_Xtr  Bot_Xtr
  ------ -------- --------- --------- -------- -------- --------
  -1.093   0.3000   0.00547   0.00102  -0.1211   0.2484   0.0543
  -0.689   0.3500   0.00554   0.00106  -0.1207   0.1862   0.1081
  -0.290   0.4000   0.00558   0.00111  -0.1204   0.1307   0.1887
   0.094   0.4500   0.00551   0.00115  -0.1206   0.1000   0.2911
   0.477   0.5000   0.00543   0.00121  -0.1208   0.0700   0.4025
   0.856   0.5500   0.00531   0.00126  -0.1211   0.0526   0.5159
   1.238   0.6000   0.00528   0.00136  -0.1210   0.0378   0.6008
   1.625   0.6500   0.00540   0.00149  -0.1205   0.0278   0.6293
   2.013   0.7000   0.00557   0.00163  -0.1199   0.0218   0.6358
