  
       XFOIL         Version 6.97
  
 Calculated polar for: NC120                                           
  
 1 1 Reynolds number fixed          Mach number fixed         
  
 xtrf =   1.000 (top)        1.000 (bottom)  
 Mach =   0.800     Re =    10.000 e 6     Ncrit =   9.000
  
   alpha    CL        CD       CDp       CM     Top_Xtr  Bot_Xtr
  ------ -------- --------- --------- -------- -------- --------
  -0.604   0.3000   0.00380   0.00128  -0.1227   0.6814   0.5582
  -0.150   0.3500   0.00447   0.00166  -0.1139   0.5580   0.5891
   0.443   0.4000   0.00598   0.00253  -0.1002   0.3085   0.6045
   0.866   0.4500   0.00690   0.00313  -0.0930   0.1764   0.6124
   1.206   0.5000   0.00749   0.00356  -0.0888   0.1070   0.6153
   1.511   0.5500   0.00793   0.00394  -0.0857   0.0736   0.6173
   1.809   0.6000   0.00835   0.00433  -0.0825   0.0527   0.6190
   2.090   0.6500   0.00872   0.00471  -0.0797   0.0424   0.6207
   2.362   0.7000   0.00907   0.00509  -0.0767   0.0362   0.6221
