  
       XFOIL         Version 6.97
  
 Calculated polar for: NE090                                           
  
 1 1 Reynolds number fixed          Mach number fixed         
  
 xtrf =   1.000 (top)        1.000 (bottom)  
 Mach =   0.600     Re =    10.000 e 6     Ncrit =   9.000
  
   alpha    CL        CD       CDp       CM     Top_Xtr  Bot_Xtr
  ------ -------- --------- --------- -------- -------- --------
  -1.968   0.3000   0.00480   0.00105  -0.1517   0.7217   0.0113
  -1.407   0.3500   0.00584   0.00129  -0.1454   0.4587   0.0126
  -0.610   0.4500   0.00650   0.00145  -0.1425   0.2538   0.0439
  -0.298   0.5000   0.00568   0.00136  -0.1450   0.1961   0.4669
   0.067   0.5500   0.00578   0.00146  -0.1445   0.1433   0.5425
   0.433   0.6000   0.00597   0.00161  -0.1438   0.0997   0.5862
   0.794   0.6500   0.00618   0.00176  -0.1430   0.0769   0.5994
   1.150   0.7000   0.00637   0.00191  -0.1422   0.0635   0.6055
