  
       XFOIL         Version 6.97
  
 Calculated polar for: NC120                                           
  
 1 1 Reynolds number fixed          Mach number fixed         
  
 xtrf =   1.000 (top)        1.000 (bottom)  
 Mach =   0.500     Re =    30.000 e 6     Ncrit =   9.000
  
   alpha    CL        CD       CDp       CM     Top_Xtr  Bot_Xtr
  ------ -------- --------- --------- -------- -------- --------
  -0.217   0.3500   0.00567   0.00124  -0.1068   0.1408   0.2177
   0.145   0.4000   0.00535   0.00120  -0.1079   0.1083   0.3967
   0.506   0.4500   0.00506   0.00119  -0.1090   0.0812   0.5552
   0.890   0.5000   0.00511   0.00127  -0.1089   0.0636   0.5979
   1.280   0.5500   0.00526   0.00139  -0.1084   0.0475   0.6088
   1.669   0.6000   0.00542   0.00151  -0.1078   0.0394   0.6095
   2.057   0.6500   0.00559   0.00164  -0.1072   0.0328   0.6128
   2.445   0.7000   0.00575   0.00178  -0.1064   0.0276   0.6173
