  
       XFOIL         Version 6.97
  
 Calculated polar for: NE100                                           
  
 1 1 Reynolds number fixed          Mach number fixed         
  
 xtrf =   1.000 (top)        1.000 (bottom)  
 Mach =   0.500     Re =    20.000 e 6     Ncrit =   9.000
  
   alpha    CL        CD       CDp       CM     Top_Xtr  Bot_Xtr
  ------ -------- --------- --------- -------- -------- --------
  -1.473   0.3000   0.00591   0.00120  -0.1318   0.2489   0.0246
  -1.087   0.3500   0.00598   0.00120  -0.1318   0.2073   0.0432
  -0.358   0.4500   0.00530   0.00112  -0.1339   0.1278   0.4389
   0.021   0.5000   0.00525   0.00117  -0.1341   0.0954   0.5307
   0.402   0.5500   0.00532   0.00125  -0.1340   0.0767   0.5664
   0.784   0.6000   0.00547   0.00136  -0.1337   0.0646   0.5707
   1.164   0.6500   0.00561   0.00147  -0.1334   0.0565   0.5786
   1.542   0.7000   0.00574   0.00158  -0.1330   0.0517   0.5828
