  
       XFOIL         Version 6.97
  
 Calculated polar for: NC090                                           
  
 1 1 Reynolds number fixed          Mach number fixed         
  
 xtrf =   1.000 (top)        1.000 (bottom)  
 Mach =   0.400     Re =    30.000 e 6     Ncrit =   9.000
  
   alpha    CL        CD       CDp       CM     Top_Xtr  Bot_Xtr
  ------ -------- --------- --------- -------- -------- --------
  -1.255   0.3000   0.00541   0.00089  -0.1230   0.2632   0.0082
  -0.809   0.3500   0.00567   0.00093  -0.1221   0.1636   0.0193
  -0.390   0.4000   0.00570   0.00096  -0.1220   0.1222   0.0716
   0.023   0.4500   0.00564   0.00101  -0.1220   0.0931   0.1684
   0.426   0.5000   0.00534   0.00105  -0.1226   0.0632   0.3942
   0.840   0.5500   0.00537   0.00114  -0.1225   0.0406   0.4665
   1.252   0.6000   0.00538   0.00123  -0.1224   0.0274   0.5383
   1.662   0.6500   0.00541   0.00135  -0.1223   0.0204   0.5998
   2.071   0.7000   0.00548   0.00147  -0.1220   0.0182   0.6372
