  
       XFOIL         Version 6.97
  
 Calculated polar for: NE120                                           
  
 1 1 Reynolds number fixed          Mach number fixed         
  
 xtrf =   1.000 (top)        1.000 (bottom)  
 Mach =   0.700     Re =    25.000 e 6     Ncrit =   9.000
  
   alpha    CL        CD       CDp       CM     Top_Xtr  Bot_Xtr
  ------ -------- --------- --------- -------- -------- --------
  -0.932   0.3000   0.00652   0.00207  -0.1251   0.1803   0.0746
  -0.815   0.3500   0.00557   0.00169  -0.1336   0.1506   0.3942
  -0.532   0.4000   0.00540   0.00163  -0.1347   0.1195   0.4856
  -0.202   0.4500   0.00549   0.00171  -0.1336   0.0908   0.5143
   0.127   0.5000   0.00562   0.00181  -0.1323   0.0733   0.5306
   0.447   0.5500   0.00573   0.00192  -0.1312   0.0631   0.5444
   0.769   0.6000   0.00590   0.00207  -0.1298   0.0537   0.5461
   1.085   0.6500   0.00606   0.00222  -0.1285   0.0493   0.5520
   1.401   0.7000   0.00622   0.00238  -0.1269   0.0441   0.5562
