  
       XFOIL         Version 6.97
  
 Calculated polar for: NE140                                           
  
 1 1 Reynolds number fixed          Mach number fixed         
  
 xtrf =   1.000 (top)        1.000 (bottom)  
 Mach =   0.700     Re =    25.000 e 6     Ncrit =   9.000
  
   alpha    CL        CD       CDp       CM     Top_Xtr  Bot_Xtr
  ------ -------- --------- --------- -------- -------- --------
  -0.897   0.3000   0.00546   0.00174  -0.1292   0.1329   0.4819
  -0.603   0.3500   0.00558   0.00181  -0.1294   0.0927   0.5091
  -0.304   0.4000   0.00573   0.00191  -0.1292   0.0718   0.5206
  -0.011   0.4500   0.00585   0.00202  -0.1291   0.0571   0.5341
   0.284   0.5000   0.00598   0.00214  -0.1288   0.0488   0.5409
   0.581   0.5500   0.00613   0.00227  -0.1283   0.0449   0.5436
   0.880   0.6000   0.00627   0.00241  -0.1275   0.0413   0.5452
   1.192   0.6500   0.00641   0.00255  -0.1261   0.0403   0.5462
   1.504   0.7000   0.00658   0.00272  -0.1244   0.0377   0.5502
