  
       XFOIL         Version 6.97
  
 Calculated polar for: NE100                                           
  
 1 1 Reynolds number fixed          Mach number fixed         
  
 xtrf =   1.000 (top)        1.000 (bottom)  
 Mach =   0.500     Re =    10.000 e 6     Ncrit =   9.000
  
   alpha    CL        CD       CDp       CM     Top_Xtr  Bot_Xtr
  ------ -------- --------- --------- -------- -------- --------
  -1.494   0.3000   0.00578   0.00119  -0.1318   0.4618   0.0354
  -1.064   0.3500   0.00602   0.00125  -0.1308   0.3435   0.1057
  -0.717   0.4000   0.00513   0.00106  -0.1333   0.2776   0.4952
  -0.314   0.4500   0.00530   0.00115  -0.1328   0.2072   0.5547
   0.088   0.5000   0.00556   0.00128  -0.1322   0.1463   0.5821
   0.487   0.5500   0.00583   0.00142  -0.1316   0.1020   0.5917
   0.877   0.6000   0.00605   0.00155  -0.1311   0.0777   0.5968
   1.263   0.6500   0.00624   0.00169  -0.1306   0.0649   0.6018
   1.647   0.7000   0.00642   0.00183  -0.1301   0.0568   0.6081
