  
       XFOIL         Version 6.97
  
 Calculated polar for: NE140                                           
  
 1 1 Reynolds number fixed          Mach number fixed         
  
 xtrf =   1.000 (top)        1.000 (bottom)  
 Mach =   0.500     Re =    20.000 e 6     Ncrit =   9.000
  
   alpha    CL        CD       CDp       CM     Top_Xtr  Bot_Xtr
  ------ -------- --------- --------- -------- -------- --------
  -0.824   0.3000   0.00515   0.00119  -0.1173   0.1382   0.5152
  -0.455   0.3500   0.00528   0.00126  -0.1176   0.1064   0.5334
  -0.087   0.4000   0.00541   0.00134  -0.1179   0.0810   0.5496
   0.283   0.4500   0.00557   0.00144  -0.1180   0.0639   0.5551
   0.652   0.5000   0.00573   0.00155  -0.1181   0.0530   0.5588
   1.017   0.5500   0.00586   0.00166  -0.1182   0.0475   0.5607
   1.385   0.6000   0.00602   0.00178  -0.1181   0.0426   0.5616
   1.747   0.6500   0.00614   0.00190  -0.1181   0.0410   0.5663
   2.111   0.7000   0.00629   0.00204  -0.1179   0.0386   0.5707
