  
       XFOIL         Version 6.97
  
 Calculated polar for: NC130                                           
  
 1 1 Reynolds number fixed          Mach number fixed         
  
 xtrf =   1.000 (top)        1.000 (bottom)  
 Mach =   0.500     Re =    30.000 e 6     Ncrit =   9.000
  
   alpha    CL        CD       CDp       CM     Top_Xtr  Bot_Xtr
  ------ -------- --------- --------- -------- -------- --------
  -0.347   0.3000   0.00576   0.00131  -0.0993   0.1566   0.1946
   0.354   0.4000   0.00497   0.00116  -0.1024   0.0955   0.5598
   0.742   0.4500   0.00507   0.00125  -0.1022   0.0731   0.5872
   1.132   0.5000   0.00522   0.00137  -0.1017   0.0566   0.6015
   1.523   0.5500   0.00538   0.00148  -0.1011   0.0458   0.6041
   1.913   0.6000   0.00554   0.00161  -0.1004   0.0376   0.6051
   2.303   0.6500   0.00571   0.00174  -0.0996   0.0330   0.6056
   2.690   0.7000   0.00586   0.00188  -0.0988   0.0296   0.6068
