  
       XFOIL         Version 6.97
  
 Calculated polar for: NE145                                           
  
 1 1 Reynolds number fixed          Mach number fixed         
  
 xtrf =   1.000 (top)        1.000 (bottom)  
 Mach =   0.600     Re =    10.000 e 6     Ncrit =   9.000
  
   alpha    CL        CD       CDp       CM     Top_Xtr  Bot_Xtr
  ------ -------- --------- --------- -------- -------- --------
  -0.703   0.3000   0.00556   0.00153  -0.1179   0.2237   0.5475
  -0.335   0.3500   0.00590   0.00169  -0.1172   0.1529   0.5570
   0.023   0.4000   0.00619   0.00184  -0.1166   0.1069   0.5599
   0.372   0.4500   0.00642   0.00198  -0.1162   0.0798   0.5644
   0.719   0.5000   0.00664   0.00214  -0.1158   0.0617   0.5677
   1.063   0.5500   0.00685   0.00231  -0.1153   0.0502   0.5701
   1.406   0.6000   0.00705   0.00248  -0.1147   0.0433   0.5718
   1.748   0.6500   0.00725   0.00267  -0.1140   0.0397   0.5728
   2.087   0.7000   0.00745   0.00286  -0.1132   0.0366   0.5761
