  
       XFOIL         Version 6.97
  
 Calculated polar for: NE110                                           
  
 1 1 Reynolds number fixed          Mach number fixed         
  
 xtrf =   1.000 (top)        1.000 (bottom)  
 Mach =   0.600     Re =    10.000 e 6     Ncrit =   9.000
  
   alpha    CL        CD       CDp       CM     Top_Xtr  Bot_Xtr
  ------ -------- --------- --------- -------- -------- --------
  -1.031   0.3500   0.00502   0.00118  -0.1352   0.3407   0.4901
  -0.649   0.4000   0.00523   0.00128  -0.1344   0.2626   0.5377
   0.110   0.5000   0.00584   0.00158  -0.1323   0.1319   0.5741
   0.481   0.5500   0.00613   0.00174  -0.1313   0.0908   0.5784
   0.839   0.6000   0.00634   0.00189  -0.1305   0.0738   0.5819
   1.193   0.6500   0.00652   0.00204  -0.1298   0.0625   0.5876
   1.547   0.7000   0.00671   0.00220  -0.1289   0.0538   0.5916
