  
       XFOIL         Version 6.97
  
 Calculated polar for: NE110                                           
  
 1 1 Reynolds number fixed          Mach number fixed         
  
 xtrf =   1.000 (top)        1.000 (bottom)  
 Mach =   0.400     Re =    30.000 e 6     Ncrit =   9.000
  
   alpha    CL        CD       CDp       CM     Top_Xtr  Bot_Xtr
  ------ -------- --------- --------- -------- -------- --------
  -0.836   0.3500   0.00577   0.00113  -0.1226   0.1339   0.1113
  -0.469   0.4000   0.00513   0.00101  -0.1245   0.1062   0.3993
  -0.074   0.4500   0.00501   0.00102  -0.1251   0.0844   0.4928
   0.324   0.5000   0.00500   0.00107  -0.1254   0.0686   0.5476
   0.726   0.5500   0.00512   0.00116  -0.1254   0.0603   0.5559
   1.126   0.6000   0.00523   0.00124  -0.1254   0.0537   0.5622
   1.529   0.6500   0.00537   0.00134  -0.1252   0.0484   0.5647
   1.928   0.7000   0.00549   0.00145  -0.1251   0.0436   0.5715
