  
       XFOIL         Version 6.97
  
 Calculated polar for: NC100                                           
  
 1 1 Reynolds number fixed          Mach number fixed         
  
 xtrf =   1.000 (top)        1.000 (bottom)  
 Mach =   0.400     Re =    10.000 e 6     Ncrit =   9.000
  
   alpha    CL        CD       CDp       CM     Top_Xtr  Bot_Xtr
  ------ -------- --------- --------- -------- -------- --------
  -0.634   0.3500   0.00445   0.00077  -0.1176   0.4529   0.4919
  -0.145   0.4000   0.00477   0.00093  -0.1160   0.2942   0.6185
   0.754   0.5000   0.00553   0.00125  -0.1140   0.1261   0.6564
   1.186   0.5500   0.00582   0.00140  -0.1132   0.0821   0.6598
   1.613   0.6000   0.00609   0.00155  -0.1126   0.0553   0.6621
   2.037   0.6500   0.00634   0.00173  -0.1119   0.0376   0.6637
   2.459   0.7000   0.00658   0.00191  -0.1111   0.0269   0.6691
