  
       XFOIL         Version 6.97
  
 Calculated polar for: NC100                                           
  
 1 1 Reynolds number fixed          Mach number fixed         
  
 xtrf =   1.000 (top)        1.000 (bottom)  
 Mach =   0.500     Re =    10.000 e 6     Ncrit =   9.000
  
   alpha    CL        CD       CDp       CM     Top_Xtr  Bot_Xtr
  ------ -------- --------- --------- -------- -------- --------
  -1.260   0.3000   0.00449   0.00077  -0.1250   0.6963   0.1314
  -0.731   0.3500   0.00437   0.00081  -0.1220   0.5166   0.4381
  -0.249   0.4000   0.00462   0.00096  -0.1200   0.3448   0.6120
   0.204   0.4500   0.00515   0.00116  -0.1182   0.2162   0.6395
   0.624   0.5000   0.00551   0.00133  -0.1171   0.1466   0.6511
   1.445   0.6000   0.00613   0.00168  -0.1151   0.0576   0.6592
   1.847   0.6500   0.00639   0.00186  -0.1141   0.0386   0.6616
   2.244   0.7000   0.00663   0.00205  -0.1131   0.0292   0.6630
