  
       XFOIL         Version 6.97
  
 Calculated polar for: NC090                                           
  
 1 1 Reynolds number fixed          Mach number fixed         
  
 xtrf =   1.000 (top)        1.000 (bottom)  
 Mach =   0.500     Re =    15.000 e 6     Ncrit =   9.000
  
   alpha    CL        CD       CDp       CM     Top_Xtr  Bot_Xtr
  ------ -------- --------- --------- -------- -------- --------
  -0.885   0.3500   0.00552   0.00098  -0.1261   0.4001   0.0207
  -0.030   0.4500   0.00560   0.00114  -0.1246   0.1679   0.3695
   0.353   0.5000   0.00523   0.00118  -0.1253   0.1175   0.6167
   0.757   0.5500   0.00545   0.00132  -0.1246   0.0746   0.6424
   1.159   0.6000   0.00569   0.00148  -0.1238   0.0428   0.6608
   1.556   0.6500   0.00591   0.00165  -0.1230   0.0274   0.6669
   1.947   0.7000   0.00609   0.00181  -0.1223   0.0217   0.6729
