  
       XFOIL         Version 6.97
  
 Calculated polar for: NE130                                           
  
 1 1 Reynolds number fixed          Mach number fixed         
  
 xtrf =   1.000 (top)        1.000 (bottom)  
 Mach =   0.400     Re =    30.000 e 6     Ncrit =   9.000
  
   alpha    CL        CD       CDp       CM     Top_Xtr  Bot_Xtr
  ------ -------- --------- --------- -------- -------- --------
  -0.874   0.3000   0.00520   0.00109  -0.1145   0.1265   0.3797
  -0.493   0.3500   0.00498   0.00103  -0.1156   0.0981   0.4859
  -0.099   0.4000   0.00498   0.00107  -0.1160   0.0809   0.5290
   0.301   0.4500   0.00508   0.00114  -0.1162   0.0634   0.5491
   0.701   0.5000   0.00521   0.00123  -0.1162   0.0555   0.5519
   1.099   0.5500   0.00533   0.00131  -0.1162   0.0500   0.5537
   1.499   0.6000   0.00546   0.00142  -0.1162   0.0435   0.5603
   1.895   0.6500   0.00557   0.00151  -0.1161   0.0419   0.5650
   2.296   0.7000   0.00573   0.00164  -0.1159   0.0384   0.5672
