  
       XFOIL         Version 6.97
  
 Calculated polar for: NC140                                           
  
 1 1 Reynolds number fixed          Mach number fixed         
  
 xtrf =   1.000 (top)        1.000 (bottom)  
 Mach =   0.400     Re =    30.000 e 6     Ncrit =   9.000
  
   alpha    CL        CD       CDp       CM     Top_Xtr  Bot_Xtr
  ------ -------- --------- --------- -------- -------- --------
  -0.026   0.3500   0.00497   0.00108  -0.1019   0.1135   0.5307
   0.360   0.4000   0.00502   0.00114  -0.1026   0.0880   0.5684
   0.755   0.4500   0.00514   0.00123  -0.1029   0.0696   0.5857
   1.150   0.5000   0.00527   0.00133  -0.1031   0.0547   0.5970
   1.547   0.5500   0.00542   0.00143  -0.1032   0.0452   0.5994
   1.944   0.6000   0.00558   0.00155  -0.1032   0.0385   0.6006
   2.342   0.6500   0.00574   0.00167  -0.1031   0.0343   0.6011
   2.738   0.7000   0.00590   0.00180  -0.1030   0.0308   0.6014
