  
       XFOIL         Version 6.97
  
 Calculated polar for: NE090                                           
  
 1 1 Reynolds number fixed          Mach number fixed         
  
 xtrf =   1.000 (top)        1.000 (bottom)  
 Mach =   0.500     Re =    15.000 e 6     Ncrit =   9.000
  
   alpha    CL        CD       CDp       CM     Top_Xtr  Bot_Xtr
  ------ -------- --------- --------- -------- -------- --------
  -1.660   0.3000   0.00577   0.00112  -0.1372   0.3519   0.0112
  -1.264   0.3500   0.00592   0.00113  -0.1368   0.2956   0.0131
  -0.860   0.4000   0.00613   0.00117  -0.1362   0.2197   0.0227
  -0.472   0.4500   0.00618   0.00121  -0.1362   0.1741   0.0805
  -0.117   0.5000   0.00544   0.00115  -0.1379   0.1329   0.4669
   0.269   0.5500   0.00546   0.00123  -0.1378   0.1000   0.5448
   0.656   0.6000   0.00557   0.00134  -0.1375   0.0748   0.5865
   1.040   0.6500   0.00573   0.00146  -0.1372   0.0641   0.5948
   1.421   0.7000   0.00587   0.00157  -0.1367   0.0583   0.6010
