  
       XFOIL         Version 6.97
  
 Calculated polar for: NC110                                           
  
 1 1 Reynolds number fixed          Mach number fixed         
  
 xtrf =   1.000 (top)        1.000 (bottom)  
 Mach =   0.600     Re =    25.000 e 6     Ncrit =   9.000
  
   alpha    CL        CD       CDp       CM     Top_Xtr  Bot_Xtr
  ------ -------- --------- --------- -------- -------- --------
  -0.447   0.3500   0.00566   0.00129  -0.1157   0.2036   0.1815
  -0.087   0.4000   0.00565   0.00134  -0.1157   0.1540   0.2749
   0.226   0.4500   0.00517   0.00129  -0.1177   0.1151   0.5221
   0.582   0.5000   0.00519   0.00138  -0.1175   0.0833   0.5952
   0.949   0.5500   0.00535   0.00151  -0.1166   0.0614   0.6133
   1.326   0.6000   0.00553   0.00165  -0.1153   0.0434   0.6217
   1.705   0.6500   0.00570   0.00179  -0.1136   0.0350   0.6249
   2.081   0.7000   0.00587   0.00194  -0.1119   0.0287   0.6269
