  
       XFOIL         Version 6.97
  
 Calculated polar for: NE090                                           
  
 1 1 Reynolds number fixed          Mach number fixed         
  
 xtrf =   1.000 (top)        1.000 (bottom)  
 Mach =   0.500     Re =    10.000 e 6     Ncrit =   9.000
  
   alpha    CL        CD       CDp       CM     Top_Xtr  Bot_Xtr
  ------ -------- --------- --------- -------- -------- --------
  -1.717   0.3000   0.00544   0.00105  -0.1383   0.5419   0.0124
  -1.271   0.3500   0.00587   0.00112  -0.1366   0.4139   0.0150
  -0.850   0.4000   0.00617   0.00118  -0.1357   0.3132   0.0345
  -0.482   0.4500   0.00550   0.00112  -0.1372   0.2343   0.4193
  -0.089   0.5000   0.00549   0.00119  -0.1372   0.1755   0.5340
   0.310   0.5500   0.00567   0.00131  -0.1367   0.1230   0.5873
   0.703   0.6000   0.00589   0.00145  -0.1362   0.0901   0.6033
   1.091   0.6500   0.00607   0.00158  -0.1357   0.0726   0.6122
   1.476   0.7000   0.00625   0.00171  -0.1352   0.0615   0.6171
