  
       XFOIL         Version 6.97
  
 Calculated polar for: NC145                                           
  
 1 1 Reynolds number fixed          Mach number fixed         
  
 xtrf =   1.000 (top)        1.000 (bottom)  
 Mach =   0.500     Re =    20.000 e 6     Ncrit =   9.000
  
   alpha    CL        CD       CDp       CM     Top_Xtr  Bot_Xtr
  ------ -------- --------- --------- -------- -------- --------
  -0.340   0.3000   0.00493   0.00115  -0.1009   0.1864   0.5672
   0.040   0.3500   0.00512   0.00125  -0.1009   0.1459   0.5805
   0.422   0.4000   0.00533   0.00136  -0.1008   0.1080   0.5875
   0.799   0.4500   0.00551   0.00148  -0.1008   0.0822   0.5972
   1.180   0.5000   0.00572   0.00161  -0.1005   0.0626   0.5982
   1.557   0.5500   0.00590   0.00174  -0.1003   0.0504   0.5989
   1.932   0.6000   0.00608   0.00188  -0.1000   0.0429   0.5993
   2.308   0.6500   0.00627   0.00203  -0.0996   0.0365   0.5998
   2.681   0.7000   0.00645   0.00219  -0.0992   0.0325   0.6029
