  
       XFOIL         Version 6.97
  
 Calculated polar for: NC110                                           
  
 1 1 Reynolds number fixed          Mach number fixed         
  
 xtrf =   1.000 (top)        1.000 (bottom)  
 Mach =   0.500     Re =    30.000 e 6     Ncrit =   9.000
  
   alpha    CL        CD       CDp       CM     Top_Xtr  Bot_Xtr
  ------ -------- --------- --------- -------- -------- --------
  -0.857   0.3000   0.00555   0.00111  -0.1141   0.2112   0.1151
  -0.070   0.4000   0.00560   0.00118  -0.1139   0.1206   0.2463
   0.674   0.5000   0.00519   0.00122  -0.1152   0.0693   0.5301
   1.054   0.5500   0.00517   0.00131  -0.1153   0.0511   0.6063
   1.443   0.6000   0.00532   0.00143  -0.1147   0.0398   0.6194
   1.832   0.6500   0.00548   0.00156  -0.1141   0.0318   0.6240
   2.219   0.7000   0.00565   0.00170  -0.1134   0.0259   0.6267
