  
       XFOIL         Version 6.97
  
 Calculated polar for: NE090                                           
  
 1 1 Reynolds number fixed          Mach number fixed         
  
 xtrf =   1.000 (top)        1.000 (bottom)  
 Mach =   0.800     Re =    25.000 e 6     Ncrit =   9.000
  
   alpha    CL        CD       CDp       CM     Top_Xtr  Bot_Xtr
  ------ -------- --------- --------- -------- -------- --------
  -1.536   0.3000   0.00635   0.00242  -0.1652   0.3281   0.0086
  -1.268   0.3500   0.00646   0.00231  -0.1636   0.2615   0.0092
  -1.005   0.4000   0.00658   0.00231  -0.1624   0.2223   0.0097
  -0.740   0.4500   0.00672   0.00235  -0.1612   0.1843   0.0098
  -0.464   0.5000   0.00694   0.00244  -0.1596   0.1326   0.0103
  -0.198   0.5500   0.00711   0.00254  -0.1584   0.1021   0.0124
   0.069   0.6000   0.00726   0.00266  -0.1571   0.0835   0.0161
   0.326   0.6500   0.00736   0.00279  -0.1561   0.0712   0.0396
   0.490   0.7000   0.00679   0.00282  -0.1603   0.0618   0.3827
