  
       XFOIL         Version 6.97
  
 Calculated polar for: NC100                                           
  
 1 1 Reynolds number fixed          Mach number fixed         
  
 xtrf =   1.000 (top)        1.000 (bottom)  
 Mach =   0.400     Re =    15.000 e 6     Ncrit =   9.000
  
   alpha    CL        CD       CDp       CM     Top_Xtr  Bot_Xtr
  ------ -------- --------- --------- -------- -------- --------
  -1.039   0.3000   0.00529   0.00091  -0.1166   0.4060   0.1261
  -0.586   0.3500   0.00530   0.00095  -0.1160   0.2966   0.2824
  -0.157   0.4000   0.00508   0.00096  -0.1162   0.2012   0.5038
   0.266   0.4500   0.00509   0.00104  -0.1161   0.1463   0.6055
   0.694   0.5000   0.00530   0.00117  -0.1156   0.0959   0.6357
   1.117   0.5500   0.00551   0.00129  -0.1151   0.0674   0.6473
   1.539   0.6000   0.00574   0.00144  -0.1146   0.0454   0.6516
   1.959   0.6500   0.00594   0.00159  -0.1140   0.0321   0.6564
   2.376   0.7000   0.00614   0.00175  -0.1134   0.0253   0.6598
