  
       XFOIL         Version 6.97
  
 Calculated polar for: NC100                                           
  
 1 1 Reynolds number fixed          Mach number fixed         
  
 xtrf =   1.000 (top)        1.000 (bottom)  
 Mach =   0.800     Re =    20.000 e 6     Ncrit =   9.000
  
   alpha    CL        CD       CDp       CM     Top_Xtr  Bot_Xtr
  ------ -------- --------- --------- -------- -------- --------
  -0.847   0.3000   0.00550   0.00186  -0.1321   0.5666   0.0195
  -0.431   0.3500   0.00604   0.00210  -0.1255   0.4225   0.0537
  -0.103   0.4000   0.00633   0.00229  -0.1227   0.3119   0.1401
   0.164   0.4500   0.00634   0.00242  -0.1229   0.2301   0.3020
   0.376   0.5000   0.00592   0.00243  -0.1260   0.1641   0.5845
   0.671   0.5500   0.00624   0.00268  -0.1237   0.1083   0.6129
   0.957   0.6000   0.00654   0.00293  -0.1215   0.0744   0.6258
   1.246   0.6500   0.00687   0.00321  -0.1189   0.0472   0.6293
   1.525   0.7000   0.00717   0.00349  -0.1163   0.0329   0.6308
