  
       XFOIL         Version 6.97
  
 Calculated polar for: NC100                                           
  
 1 1 Reynolds number fixed          Mach number fixed         
  
 xtrf =   1.000 (top)        1.000 (bottom)  
 Mach =   0.600     Re =    15.000 e 6     Ncrit =   9.000
  
   alpha    CL        CD       CDp       CM     Top_Xtr  Bot_Xtr
  ------ -------- --------- --------- -------- -------- --------
  -1.090   0.3000   0.00508   0.00101  -0.1243   0.5187   0.0757
  -0.311   0.4000   0.00511   0.00116  -0.1235   0.2777   0.4324
   0.057   0.4500   0.00508   0.00124  -0.1235   0.1847   0.5962
   0.439   0.5000   0.00533   0.00139  -0.1225   0.1281   0.6252
   0.820   0.5500   0.00559   0.00155  -0.1212   0.0815   0.6407
   1.199   0.6000   0.00583   0.00172  -0.1199   0.0554   0.6448
   1.579   0.6500   0.00606   0.00189  -0.1183   0.0378   0.6466
   1.957   0.7000   0.00629   0.00207  -0.1166   0.0270   0.6477
