  
       XFOIL         Version 6.97
  
 Calculated polar for: NC110                                           
  
 1 1 Reynolds number fixed          Mach number fixed         
  
 xtrf =   1.000 (top)        1.000 (bottom)  
 Mach =   0.600     Re =    30.000 e 6     Ncrit =   9.000
  
   alpha    CL        CD       CDp       CM     Top_Xtr  Bot_Xtr
  ------ -------- --------- --------- -------- -------- --------
  -0.845   0.3000   0.00557   0.00124  -0.1171   0.2381   0.1021
  -0.112   0.4000   0.00568   0.00134  -0.1163   0.1377   0.2222
   0.231   0.4500   0.00553   0.00136  -0.1169   0.1015   0.3534
   0.909   0.5500   0.00524   0.00146  -0.1179   0.0572   0.6025
   1.271   0.6000   0.00539   0.00159  -0.1170   0.0427   0.6135
   1.641   0.6500   0.00556   0.00173  -0.1157   0.0340   0.6193
   2.019   0.7000   0.00571   0.00188  -0.1139   0.0280   0.6232
