  
       XFOIL         Version 6.97
  
 Calculated polar for: NC110                                           
  
 1 1 Reynolds number fixed          Mach number fixed         
  
 xtrf =   1.000 (top)        1.000 (bottom)  
 Mach =   0.400     Re =    30.000 e 6     Ncrit =   9.000
  
   alpha    CL        CD       CDp       CM     Top_Xtr  Bot_Xtr
  ------ -------- --------- --------- -------- -------- --------
  -0.825   0.3000   0.00554   0.00101  -0.1110   0.1923   0.1233
  -0.407   0.3500   0.00556   0.00104  -0.1110   0.1474   0.1845
   0.410   0.4500   0.00545   0.00111  -0.1114   0.0848   0.3631
   0.805   0.5000   0.00519   0.00113  -0.1122   0.0626   0.5258
   1.210   0.5500   0.00515   0.00121  -0.1124   0.0478   0.6089
   1.621   0.6000   0.00528   0.00133  -0.1121   0.0371   0.6229
   2.033   0.6500   0.00544   0.00145  -0.1117   0.0297   0.6268
   2.445   0.7000   0.00561   0.00158  -0.1112   0.0248   0.6282
