  
       XFOIL         Version 6.97
  
 Calculated polar for: NE090                                           
  
 1 1 Reynolds number fixed          Mach number fixed         
  
 xtrf =   1.000 (top)        1.000 (bottom)  
 Mach =   0.500     Re =    25.000 e 6     Ncrit =   9.000
  
   alpha    CL        CD       CDp       CM     Top_Xtr  Bot_Xtr
  ------ -------- --------- --------- -------- -------- --------
  -1.283   0.3500   0.00578   0.00108  -0.1376   0.1973   0.0120
  -0.897   0.4000   0.00587   0.00110  -0.1375   0.1593   0.0160
  -0.513   0.4500   0.00594   0.00113  -0.1374   0.1301   0.0359
  -0.130   0.5000   0.00597   0.00119  -0.1374   0.0985   0.0996
   0.224   0.5500   0.00532   0.00116  -0.1389   0.0797   0.4515
   0.601   0.6000   0.00522   0.00123  -0.1390   0.0656   0.5567
   0.979   0.6500   0.00532   0.00132  -0.1388   0.0598   0.5707
   1.360   0.7000   0.00546   0.00143  -0.1384   0.0504   0.5779
