  
       XFOIL         Version 6.97
  
 Calculated polar for: NE130                                           
  
 1 1 Reynolds number fixed          Mach number fixed         
  
 xtrf =   1.000 (top)        1.000 (bottom)  
 Mach =   0.500     Re =    25.000 e 6     Ncrit =   9.000
  
   alpha    CL        CD       CDp       CM     Top_Xtr  Bot_Xtr
  ------ -------- --------- --------- -------- -------- --------
  -0.925   0.3000   0.00511   0.00114  -0.1186   0.1497   0.4426
  -0.555   0.3500   0.00506   0.00114  -0.1191   0.1119   0.5057
  -0.178   0.4000   0.00515   0.00121  -0.1192   0.0863   0.5337
   0.197   0.4500   0.00524   0.00128  -0.1193   0.0712   0.5507
   0.576   0.5000   0.00540   0.00138  -0.1191   0.0588   0.5524
   0.953   0.5500   0.00554   0.00149  -0.1189   0.0507   0.5561
   1.328   0.6000   0.00567   0.00160  -0.1186   0.0464   0.5617
   1.702   0.6500   0.00580   0.00171  -0.1183   0.0423   0.5654
   2.076   0.7000   0.00595   0.00184  -0.1179   0.0399   0.5673
