  
       XFOIL         Version 6.97
  
 Calculated polar for: NC130                                           
  
 1 1 Reynolds number fixed          Mach number fixed         
  
 xtrf =   1.000 (top)        1.000 (bottom)  
 Mach =   0.600     Re =    30.000 e 6     Ncrit =   9.000
  
   alpha    CL        CD       CDp       CM     Top_Xtr  Bot_Xtr
  ------ -------- --------- --------- -------- -------- --------
   0.044   0.3500   0.00494   0.00122  -0.1012   0.1265   0.5285
   0.404   0.4000   0.00499   0.00129  -0.1008   0.0971   0.5706
   0.776   0.4500   0.00514   0.00141  -0.0999   0.0728   0.5869
   1.146   0.5000   0.00530   0.00154  -0.0988   0.0574   0.5992
   1.517   0.5500   0.00548   0.00168  -0.0976   0.0450   0.6023
   1.883   0.6000   0.00566   0.00183  -0.0963   0.0382   0.6039
   2.249   0.6500   0.00584   0.00199  -0.0949   0.0326   0.6049
   2.610   0.7000   0.00601   0.00215  -0.0935   0.0294   0.6054
