  
       XFOIL         Version 6.97
  
 Calculated polar for: NC130                                           
  
 1 1 Reynolds number fixed          Mach number fixed         
  
 xtrf =   1.000 (top)        1.000 (bottom)  
 Mach =   0.400     Re =    15.000 e 6     Ncrit =   9.000
  
   alpha    CL        CD       CDp       CM     Top_Xtr  Bot_Xtr
  ------ -------- --------- --------- -------- -------- --------
   0.087   0.3500   0.00498   0.00104  -0.0986   0.1878   0.5959
   0.518   0.4000   0.00523   0.00116  -0.0980   0.1378   0.6086
   0.944   0.4500   0.00546   0.00129  -0.0974   0.0994   0.6154
   1.369   0.5000   0.00569   0.00141  -0.0968   0.0717   0.6177
   1.790   0.5500   0.00589   0.00155  -0.0963   0.0564   0.6194
   2.211   0.6000   0.00610   0.00169  -0.0956   0.0435   0.6205
   2.631   0.6500   0.00629   0.00184  -0.0950   0.0369   0.6211
   3.049   0.7000   0.00649   0.00200  -0.0942   0.0327   0.6224
