  
       XFOIL         Version 6.97
  
 Calculated polar for: NE145                                           
  
 1 1 Reynolds number fixed          Mach number fixed         
  
 xtrf =   1.000 (top)        1.000 (bottom)  
 Mach =   0.600     Re =    20.000 e 6     Ncrit =   9.000
  
   alpha    CL        CD       CDp       CM     Top_Xtr  Bot_Xtr
  ------ -------- --------- --------- -------- -------- --------
  -0.764   0.3000   0.00533   0.00144  -0.1199   0.1298   0.5207
  -0.427   0.3500   0.00548   0.00152  -0.1201   0.0997   0.5349
  -0.091   0.4000   0.00562   0.00162  -0.1201   0.0786   0.5441
   0.249   0.4500   0.00579   0.00173  -0.1200   0.0616   0.5493
   0.585   0.5000   0.00594   0.00185  -0.1199   0.0503   0.5530
   0.921   0.5500   0.00610   0.00198  -0.1197   0.0432   0.5554
   1.257   0.6000   0.00627   0.00213  -0.1193   0.0389   0.5568
   1.590   0.6500   0.00642   0.00227  -0.1189   0.0363   0.5576
   1.923   0.7000   0.00659   0.00243  -0.1183   0.0336   0.5623
