  
       XFOIL         Version 6.97
  
 Calculated polar for: NE120                                           
  
 1 1 Reynolds number fixed          Mach number fixed         
  
 xtrf =   1.000 (top)        1.000 (bottom)  
 Mach =   0.900     Re =    15.000 e 6     Ncrit =   9.000
  
   alpha    CL        CD       CDp       CM     Top_Xtr  Bot_Xtr
  ------ -------- --------- --------- -------- -------- --------
   0.508   0.4500   0.01117   0.00779  -0.1116   0.0719   0.5143
   0.664   0.5000   0.01143   0.00808  -0.1109   0.0641   0.5225
   0.822   0.5500   0.01171   0.00839  -0.1096   0.0603   0.5269
   0.983   0.6000   0.01203   0.00875  -0.1079   0.0563   0.5303
   1.136   0.6500   0.01235   0.00913  -0.1061   0.0546   0.5362
   1.300   0.7000   0.01281   0.00970  -0.1029   0.0568   0.5385
