  
       XFOIL         Version 6.97
  
 Calculated polar for: NC100                                           
  
 1 1 Reynolds number fixed          Mach number fixed         
  
 xtrf =   1.000 (top)        1.000 (bottom)  
 Mach =   0.400     Re =    20.000 e 6     Ncrit =   9.000
  
   alpha    CL        CD       CDp       CM     Top_Xtr  Bot_Xtr
  ------ -------- --------- --------- -------- -------- --------
  -1.029   0.3000   0.00545   0.00094  -0.1165   0.3133   0.0950
  -0.592   0.3500   0.00550   0.00098  -0.1161   0.2307   0.1967
  -0.166   0.4000   0.00543   0.00102  -0.1161   0.1562   0.3428
   0.240   0.4500   0.00521   0.00104  -0.1166   0.1177   0.5061
   0.654   0.5000   0.00519   0.00111  -0.1166   0.0813   0.5990
   1.072   0.5500   0.00532   0.00123  -0.1163   0.0573   0.6317
   1.491   0.6000   0.00550   0.00136  -0.1159   0.0391   0.6454
   1.908   0.6500   0.00570   0.00150  -0.1154   0.0292   0.6472
   2.323   0.7000   0.00588   0.00165  -0.1149   0.0234   0.6500
