  
       XFOIL         Version 6.97
  
 Calculated polar for: NC110                                           
  
 1 1 Reynolds number fixed          Mach number fixed         
  
 xtrf =   1.000 (top)        1.000 (bottom)  
 Mach =   0.600     Re =    10.000 e 6     Ncrit =   9.000
  
   alpha    CL        CD       CDp       CM     Top_Xtr  Bot_Xtr
  ------ -------- --------- --------- -------- -------- --------
  -0.947   0.3000   0.00371   0.00069  -0.1205   0.6496   0.4727
  -0.447   0.3500   0.00418   0.00090  -0.1165   0.4655   0.5946
   0.008   0.4000   0.00483   0.00116  -0.1135   0.3157   0.6174
   0.429   0.4500   0.00534   0.00139  -0.1113   0.2097   0.6315
   0.832   0.5000   0.00576   0.00159  -0.1095   0.1349   0.6360
   1.222   0.5500   0.00609   0.00179  -0.1079   0.0862   0.6390
   1.605   0.6000   0.00638   0.00199  -0.1064   0.0591   0.6413
   1.982   0.6500   0.00665   0.00220  -0.1048   0.0421   0.6430
   2.355   0.7000   0.00690   0.00242  -0.1031   0.0331   0.6440
