  
       XFOIL         Version 6.97
  
 Calculated polar for: NC110                                           
  
 1 1 Reynolds number fixed          Mach number fixed         
  
 xtrf =   1.000 (top)        1.000 (bottom)  
 Mach =   0.800     Re =    15.000 e 6     Ncrit =   9.000
  
   alpha    CL        CD       CDp       CM     Top_Xtr  Bot_Xtr
  ------ -------- --------- --------- -------- -------- --------
  -0.589   0.3000   0.00552   0.00198  -0.1196   0.5924   0.1085
  -0.285   0.3500   0.00526   0.00196  -0.1196   0.4718   0.3786
   0.040   0.4000   0.00532   0.00210  -0.1182   0.3337   0.5811
   0.411   0.4500   0.00599   0.00250  -0.1131   0.2125   0.6001
   1.049   0.5500   0.00690   0.00316  -0.1064   0.0915   0.6184
   1.341   0.6000   0.00725   0.00346  -0.1037   0.0622   0.6210
   1.623   0.6500   0.00758   0.00377  -0.1012   0.0452   0.6232
   1.893   0.7000   0.00787   0.00407  -0.0987   0.0355   0.6249
