  
       XFOIL         Version 6.97
  
 Calculated polar for: NE130                                           
  
 1 1 Reynolds number fixed          Mach number fixed         
  
 xtrf =   1.000 (top)        1.000 (bottom)  
 Mach =   0.700     Re =    30.000 e 6     Ncrit =   9.000
  
   alpha    CL        CD       CDp       CM     Top_Xtr  Bot_Xtr
  ------ -------- --------- --------- -------- -------- --------
  -0.835   0.3000   0.00557   0.00174  -0.1248   0.1339   0.3825
  -0.568   0.3500   0.00535   0.00164  -0.1264   0.1077   0.4730
  -0.246   0.4000   0.00542   0.00170  -0.1256   0.0796   0.5059
   0.077   0.4500   0.00553   0.00179  -0.1246   0.0640   0.5219
   0.393   0.5000   0.00563   0.00190  -0.1236   0.0552   0.5370
   0.709   0.5500   0.00578   0.00203  -0.1224   0.0494   0.5398
   1.025   0.6000   0.00594   0.00218  -0.1211   0.0432   0.5454
   1.341   0.6500   0.00608   0.00234  -0.1196   0.0419   0.5492
   1.659   0.7000   0.00626   0.00252  -0.1178   0.0391   0.5514
