  
       XFOIL         Version 6.97
  
 Calculated polar for: NC130                                           
  
 1 1 Reynolds number fixed          Mach number fixed         
  
 xtrf =   1.000 (top)        1.000 (bottom)  
 Mach =   0.400     Re =    10.000 e 6     Ncrit =   9.000
  
   alpha    CL        CD       CDp       CM     Top_Xtr  Bot_Xtr
  ------ -------- --------- --------- -------- -------- --------
  -0.338   0.3000   0.00453   0.00089  -0.0987   0.3697   0.6019
   0.127   0.3500   0.00499   0.00105  -0.0973   0.2680   0.6127
   1.025   0.4500   0.00574   0.00137  -0.0951   0.1265   0.6208
   1.462   0.5000   0.00605   0.00153  -0.0943   0.0882   0.6215
   1.890   0.5500   0.00628   0.00168  -0.0936   0.0648   0.6253
   2.314   0.6000   0.00650   0.00184  -0.0929   0.0500   0.6287
   2.737   0.6500   0.00671   0.00201  -0.0921   0.0414   0.6312
   3.162   0.7000   0.00693   0.00220  -0.0912   0.0352   0.6333
