  
       XFOIL         Version 6.97
  
 Calculated polar for: NC110                                           
  
 1 1 Reynolds number fixed          Mach number fixed         
  
 xtrf =   1.000 (top)        1.000 (bottom)  
 Mach =   0.700     Re =    25.000 e 6     Ncrit =   9.000
  
   alpha    CL        CD       CDp       CM     Top_Xtr  Bot_Xtr
  ------ -------- --------- --------- -------- -------- --------
  -0.598   0.3000   0.00570   0.00149  -0.1135   0.2841   0.1094
  -0.264   0.3500   0.00580   0.00157  -0.1127   0.2204   0.1706
   0.291   0.4500   0.00521   0.00156  -0.1163   0.1292   0.5648
   0.626   0.5000   0.00540   0.00172  -0.1151   0.0911   0.5962
   0.960   0.5500   0.00560   0.00189  -0.1136   0.0627   0.6125
   1.290   0.6000   0.00581   0.00206  -0.1121   0.0483   0.6154
   1.616   0.6500   0.00602   0.00224  -0.1105   0.0359   0.6196
   1.938   0.7000   0.00621   0.00243  -0.1087   0.0295   0.6226
