  
       XFOIL         Version 6.97
  
 Calculated polar for: NC120                                           
  
 1 1 Reynolds number fixed          Mach number fixed         
  
 xtrf =   1.000 (top)        1.000 (bottom)  
 Mach =   0.700     Re =    25.000 e 6     Ncrit =   9.000
  
   alpha    CL        CD       CDp       CM     Top_Xtr  Bot_Xtr
  ------ -------- --------- --------- -------- -------- --------
  -0.287   0.3000   0.00591   0.00169  -0.1022   0.2291   0.1732
  -0.076   0.3500   0.00512   0.00149  -0.1073   0.1834   0.5056
   0.244   0.4000   0.00516   0.00157  -0.1069   0.1392   0.5730
   0.582   0.4500   0.00537   0.00172  -0.1055   0.1022   0.5891
   0.916   0.5000   0.00558   0.00189  -0.1041   0.0746   0.6033
   1.247   0.5500   0.00579   0.00206  -0.1026   0.0555   0.6075
   1.578   0.6000   0.00601   0.00224  -0.1008   0.0435   0.6086
   1.912   0.6500   0.00623   0.00244  -0.0987   0.0356   0.6093
   2.238   0.7000   0.00643   0.00265  -0.0966   0.0308   0.6099
