  
       XFOIL         Version 6.97
  
 Calculated polar for: NC120                                           
  
 1 1 Reynolds number fixed          Mach number fixed         
  
 xtrf =   1.000 (top)        1.000 (bottom)  
 Mach =   0.700     Re =    20.000 e 6     Ncrit =   9.000
  
   alpha    CL        CD       CDp       CM     Top_Xtr  Bot_Xtr
  ------ -------- --------- --------- -------- -------- --------
  -0.363   0.3000   0.00521   0.00149  -0.1060   0.2845   0.4030
  -0.067   0.3500   0.00500   0.00146  -0.1072   0.2169   0.5630
   0.280   0.4000   0.00525   0.00162  -0.1057   0.1603   0.5871
   0.629   0.4500   0.00554   0.00180  -0.1039   0.1122   0.5980
   0.967   0.5000   0.00577   0.00197  -0.1023   0.0798   0.6085
   1.306   0.5500   0.00602   0.00216  -0.1005   0.0573   0.6092
   1.643   0.6000   0.00625   0.00236  -0.0985   0.0458   0.6103
   1.975   0.6500   0.00647   0.00257  -0.0965   0.0371   0.6138
   2.300   0.7000   0.00668   0.00279  -0.0945   0.0316   0.6170
