  
       XFOIL         Version 6.97
  
 Calculated polar for: NE110                                           
  
 1 1 Reynolds number fixed          Mach number fixed         
  
 xtrf =   1.000 (top)        1.000 (bottom)  
 Mach =   0.800     Re =    30.000 e 6     Ncrit =   9.000
  
   alpha    CL        CD       CDp       CM     Top_Xtr  Bot_Xtr
  ------ -------- --------- --------- -------- -------- --------
  -0.875   0.3000   0.00704   0.00282  -0.1335   0.1848   0.0258
  -0.618   0.3500   0.00715   0.00287  -0.1330   0.1516   0.0325
  -0.360   0.4000   0.00727   0.00294  -0.1323   0.1191   0.0477
  -0.127   0.4500   0.00727   0.00300  -0.1330   0.0899   0.1146
  -0.074   0.5000   0.00625   0.00259  -0.1433   0.0785   0.4573
   0.174   0.5500   0.00630   0.00270  -0.1428   0.0672   0.5002
   0.430   0.6000   0.00643   0.00285  -0.1416   0.0614   0.5160
   0.685   0.6500   0.00658   0.00302  -0.1404   0.0538   0.5305
   0.937   0.7000   0.00674   0.00320  -0.1389   0.0509   0.5388
