  
       XFOIL         Version 6.97
  
 Calculated polar for: NE145                                           
  
 1 1 Reynolds number fixed          Mach number fixed         
  
 xtrf =   1.000 (top)        1.000 (bottom)  
 Mach =   0.800     Re =    20.000 e 6     Ncrit =   9.000
  
   alpha    CL        CD       CDp       CM     Top_Xtr  Bot_Xtr
  ------ -------- --------- --------- -------- -------- --------
  -0.144   0.3500   0.00688   0.00321  -0.1199   0.0794   0.5221
   0.113   0.4000   0.00714   0.00344  -0.1187   0.0621   0.5300
   0.365   0.4500   0.00737   0.00367  -0.1176   0.0505   0.5363
   0.617   0.5000   0.00762   0.00392  -0.1163   0.0434   0.5385
   0.865   0.5500   0.00786   0.00417  -0.1149   0.0400   0.5400
   1.117   0.6000   0.00814   0.00447  -0.1131   0.0367   0.5411
   1.365   0.6500   0.00841   0.00477  -0.1112   0.0352   0.5419
   1.606   0.7000   0.00870   0.00509  -0.1093   0.0341   0.5453
