  
       XFOIL         Version 6.97
  
 Calculated polar for: NC090                                           
  
 1 1 Reynolds number fixed          Mach number fixed         
  
 xtrf =   1.000 (top)        1.000 (bottom)  
 Mach =   0.700     Re =    20.000 e 6     Ncrit =   9.000
  
   alpha    CL        CD       CDp       CM     Top_Xtr  Bot_Xtr
  ------ -------- --------- --------- -------- -------- --------
  -1.250   0.3000   0.00506   0.00119  -0.1375   0.5326   0.0061
  -0.818   0.3500   0.00550   0.00128  -0.1331   0.4008   0.0071
  -0.446   0.4000   0.00579   0.00136  -0.1308   0.3122   0.0102
  -0.067   0.4500   0.00622   0.00153  -0.1285   0.1793   0.0519
   0.824   0.6000   0.00572   0.00187  -0.1306   0.0563   0.6275
   1.156   0.6500   0.00596   0.00207  -0.1291   0.0321   0.6428
   1.480   0.7000   0.00615   0.00226  -0.1275   0.0233   0.6509
