  
       XFOIL         Version 6.97
  
 Calculated polar for: NE110                                           
  
 1 1 Reynolds number fixed          Mach number fixed         
  
 xtrf =   1.000 (top)        1.000 (bottom)  
 Mach =   0.400     Re =    25.000 e 6     Ncrit =   9.000
  
   alpha    CL        CD       CDp       CM     Top_Xtr  Bot_Xtr
  ------ -------- --------- --------- -------- -------- --------
  -1.224   0.3000   0.00585   0.00114  -0.1219   0.1873   0.0666
  -0.825   0.3500   0.00578   0.00114  -0.1224   0.1486   0.1543
  -0.462   0.4000   0.00504   0.00099  -0.1245   0.1203   0.4610
  -0.061   0.4500   0.00504   0.00103  -0.1248   0.0913   0.5239
   0.341   0.5000   0.00510   0.00110  -0.1249   0.0757   0.5578
   0.745   0.5500   0.00523   0.00119  -0.1249   0.0637   0.5633
   1.148   0.6000   0.00537   0.00128  -0.1248   0.0541   0.5664
   1.549   0.6500   0.00549   0.00138  -0.1247   0.0508   0.5738
   1.952   0.7000   0.00564   0.00150  -0.1245   0.0439   0.5782
