  
       XFOIL         Version 6.97
  
 Calculated polar for: NC120                                           
  
 1 1 Reynolds number fixed          Mach number fixed         
  
 xtrf =   1.000 (top)        1.000 (bottom)  
 Mach =   0.400     Re =    20.000 e 6     Ncrit =   9.000
  
   alpha    CL        CD       CDp       CM     Top_Xtr  Bot_Xtr
  ------ -------- --------- --------- -------- -------- --------
  -0.562   0.3000   0.00555   0.00109  -0.1039   0.2302   0.2484
  -0.176   0.3500   0.00500   0.00099  -0.1054   0.1807   0.4983
   0.235   0.4000   0.00497   0.00103  -0.1057   0.1352   0.5865
   0.658   0.4500   0.00515   0.00115  -0.1053   0.0960   0.6094
   1.077   0.5000   0.00534   0.00126  -0.1049   0.0697   0.6191
   1.493   0.5500   0.00551   0.00138  -0.1045   0.0545   0.6220
   1.910   0.6000   0.00570   0.00151  -0.1040   0.0433   0.6238
   2.326   0.6500   0.00589   0.00165  -0.1035   0.0349   0.6247
   2.740   0.7000   0.00607   0.00179  -0.1029   0.0303   0.6253
