  
       XFOIL         Version 6.97
  
 Calculated polar for: NE130                                           
  
 1 1 Reynolds number fixed          Mach number fixed         
  
 xtrf =   1.000 (top)        1.000 (bottom)  
 Mach =   0.400     Re =    15.000 e 6     Ncrit =   9.000
  
   alpha    CL        CD       CDp       CM     Top_Xtr  Bot_Xtr
  ------ -------- --------- --------- -------- -------- --------
  -0.847   0.3000   0.00498   0.00100  -0.1143   0.2050   0.5255
  -0.434   0.3500   0.00515   0.00107  -0.1142   0.1544   0.5496
  -0.020   0.4000   0.00534   0.00117  -0.1140   0.1127   0.5649
   0.391   0.4500   0.00555   0.00127  -0.1138   0.0851   0.5673
   0.798   0.5000   0.00573   0.00138  -0.1136   0.0684   0.5701
   1.202   0.5500   0.00588   0.00149  -0.1135   0.0581   0.5759
   1.606   0.6000   0.00604   0.00161  -0.1133   0.0505   0.5798
   2.011   0.6500   0.00621   0.00175  -0.1131   0.0452   0.5821
   2.413   0.7000   0.00637   0.00188  -0.1128   0.0422   0.5832
