  
       XFOIL         Version 6.97
  
 Calculated polar for: NE120                                           
  
 1 1 Reynolds number fixed          Mach number fixed         
  
 xtrf =   1.000 (top)        1.000 (bottom)  
 Mach =   0.600     Re =    25.000 e 6     Ncrit =   9.000
  
   alpha    CL        CD       CDp       CM     Top_Xtr  Bot_Xtr
  ------ -------- --------- --------- -------- -------- --------
  -0.851   0.3500   0.00519   0.00129  -0.1298   0.1487   0.4371
  -0.513   0.4000   0.00515   0.00130  -0.1302   0.1185   0.4988
  -0.163   0.4500   0.00526   0.00138  -0.1300   0.0893   0.5280
   0.186   0.5000   0.00538   0.00147  -0.1298   0.0730   0.5442
   0.534   0.5500   0.00552   0.00158  -0.1294   0.0614   0.5515
   0.879   0.6000   0.00564   0.00169  -0.1289   0.0537   0.5562
   1.226   0.6500   0.00579   0.00182  -0.1283   0.0488   0.5592
   1.569   0.7000   0.00594   0.00194  -0.1276   0.0441   0.5605
