  
       XFOIL         Version 6.97
  
 Calculated polar for: NE090                                           
  
 1 1 Reynolds number fixed          Mach number fixed         
  
 xtrf =   1.000 (top)        1.000 (bottom)  
 Mach =   0.400     Re =    25.000 e 6     Ncrit =   9.000
  
   alpha    CL        CD       CDp       CM     Top_Xtr  Bot_Xtr
  ------ -------- --------- --------- -------- -------- --------
  -1.582   0.3000   0.00563   0.00096  -0.1316   0.2329   0.0102
  -1.168   0.3500   0.00575   0.00097  -0.1314   0.1827   0.0136
  -0.760   0.4000   0.00582   0.00099  -0.1314   0.1517   0.0256
  -0.352   0.4500   0.00586   0.00103  -0.1315   0.1155   0.0724
   0.435   0.5500   0.00514   0.00105  -0.1330   0.0738   0.5200
   0.840   0.6000   0.00517   0.00113  -0.1330   0.0622   0.5706
   1.245   0.6500   0.00529   0.00123  -0.1329   0.0573   0.5785
   1.650   0.7000   0.00542   0.00133  -0.1326   0.0496   0.5862
