  
       XFOIL         Version 6.97
  
 Calculated polar for: NC110                                           
  
 1 1 Reynolds number fixed          Mach number fixed         
  
 xtrf =   1.000 (top)        1.000 (bottom)  
 Mach =   0.400     Re =    10.000 e 6     Ncrit =   9.000
  
   alpha    CL        CD       CDp       CM     Top_Xtr  Bot_Xtr
  ------ -------- --------- --------- -------- -------- --------
  -0.886   0.3000   0.00414   0.00070  -0.1131   0.5308   0.4904
  -0.389   0.3500   0.00447   0.00084  -0.1113   0.3759   0.6032
   0.081   0.4000   0.00494   0.00101  -0.1098   0.2596   0.6280
   0.531   0.4500   0.00532   0.00117  -0.1087   0.1769   0.6404
   0.971   0.5000   0.00568   0.00132  -0.1078   0.1157   0.6427
   1.403   0.5500   0.00597   0.00148  -0.1071   0.0785   0.6440
   1.830   0.6000   0.00623   0.00164  -0.1064   0.0536   0.6469
   2.251   0.6500   0.00644   0.00180  -0.1058   0.0415   0.6513
   2.673   0.7000   0.00667   0.00199  -0.1050   0.0322   0.6546
