  
       XFOIL         Version 6.97
  
 Calculated polar for: NE145                                           
  
 1 1 Reynolds number fixed          Mach number fixed         
  
 xtrf =   1.000 (top)        1.000 (bottom)  
 Mach =   0.700     Re =    10.000 e 6     Ncrit =   9.000
  
   alpha    CL        CD       CDp       CM     Top_Xtr  Bot_Xtr
  ------ -------- --------- --------- -------- -------- --------
  -0.655   0.3000   0.00589   0.00196  -0.1215   0.2198   0.5396
  -0.299   0.3500   0.00629   0.00217  -0.1196   0.1413   0.5512
   0.047   0.4000   0.00661   0.00236  -0.1177   0.0972   0.5549
   0.379   0.4500   0.00687   0.00255  -0.1161   0.0716   0.5567
   0.696   0.5000   0.00711   0.00274  -0.1150   0.0571   0.5582
   1.003   0.5500   0.00733   0.00295  -0.1140   0.0479   0.5622
   1.310   0.6000   0.00756   0.00318  -0.1129   0.0421   0.5655
   1.617   0.6500   0.00781   0.00344  -0.1115   0.0380   0.5682
   1.921   0.7000   0.00805   0.00370  -0.1100   0.0362   0.5702
