  
       XFOIL         Version 6.97
  
 Calculated polar for: NE140                                           
  
 1 1 Reynolds number fixed          Mach number fixed         
  
 xtrf =   1.000 (top)        1.000 (bottom)  
 Mach =   0.800     Re =    20.000 e 6     Ncrit =   9.000
  
   alpha    CL        CD       CDp       CM     Top_Xtr  Bot_Xtr
  ------ -------- --------- --------- -------- -------- --------
  -0.563   0.3000   0.00648   0.00286  -0.1266   0.1219   0.4997
  -0.309   0.3500   0.00672   0.00304  -0.1259   0.0875   0.5145
  -0.054   0.4000   0.00696   0.00324  -0.1249   0.0639   0.5234
   0.444   0.5000   0.00738   0.00366  -0.1230   0.0477   0.5371
   0.691   0.5500   0.00760   0.00389  -0.1218   0.0444   0.5401
   0.935   0.6000   0.00782   0.00413  -0.1205   0.0413   0.5425
   1.179   0.6500   0.00806   0.00439  -0.1189   0.0403   0.5443
   1.427   0.7000   0.00833   0.00470  -0.1169   0.0387   0.5454
