  
       XFOIL         Version 6.97
  
 Calculated polar for: NC130                                           
  
 1 1 Reynolds number fixed          Mach number fixed         
  
 xtrf =   1.000 (top)        1.000 (bottom)  
 Mach =   0.500     Re =    10.000 e 6     Ncrit =   9.000
  
   alpha    CL        CD       CDp       CM     Top_Xtr  Bot_Xtr
  ------ -------- --------- --------- -------- -------- --------
  -0.341   0.3000   0.00443   0.00093  -0.1000   0.4038   0.5990
   0.114   0.3500   0.00499   0.00113  -0.0981   0.2829   0.6066
   0.556   0.4000   0.00544   0.00133  -0.0965   0.1898   0.6178
   0.987   0.4500   0.00581   0.00150  -0.0950   0.1266   0.6194
   1.412   0.5000   0.00610   0.00167  -0.0935   0.0894   0.6205
   1.839   0.5500   0.00638   0.00184  -0.0919   0.0617   0.6213
   2.256   0.6000   0.00659   0.00200  -0.0904   0.0491   0.6242
   2.670   0.6500   0.00681   0.00219  -0.0889   0.0401   0.6276
   3.080   0.7000   0.00703   0.00240  -0.0874   0.0343   0.6302
