  
       XFOIL         Version 6.97
  
 Calculated polar for: NE140                                           
  
 1 1 Reynolds number fixed          Mach number fixed         
  
 xtrf =   1.000 (top)        1.000 (bottom)  
 Mach =   0.600     Re =    20.000 e 6     Ncrit =   9.000
  
   alpha    CL        CD       CDp       CM     Top_Xtr  Bot_Xtr
  ------ -------- --------- --------- -------- -------- --------
  -0.543   0.3500   0.00541   0.00147  -0.1229   0.1068   0.5277
  -0.206   0.4000   0.00555   0.00156  -0.1230   0.0806   0.5435
   0.134   0.4500   0.00572   0.00167  -0.1229   0.0647   0.5464
   0.472   0.5000   0.00589   0.00179  -0.1228   0.0522   0.5520
   0.805   0.5500   0.00601   0.00190  -0.1227   0.0471   0.5560
   1.139   0.6000   0.00617   0.00204  -0.1225   0.0423   0.5590
   1.471   0.6500   0.00630   0.00217  -0.1222   0.0409   0.5606
   1.803   0.7000   0.00646   0.00232  -0.1216   0.0390   0.5615
