  
       XFOIL         Version 6.97
  
 Calculated polar for: NC130                                           
  
 1 1 Reynolds number fixed          Mach number fixed         
  
 xtrf =   1.000 (top)        1.000 (bottom)  
 Mach =   0.600     Re =    25.000 e 6     Ncrit =   9.000
  
   alpha    CL        CD       CDp       CM     Top_Xtr  Bot_Xtr
  ------ -------- --------- --------- -------- -------- --------
  -0.277   0.3000   0.00492   0.00118  -0.1003   0.1848   0.4950
   0.075   0.3500   0.00492   0.00122  -0.1004   0.1412   0.5634
   0.447   0.4000   0.00507   0.00132  -0.0995   0.1090   0.5816
   0.822   0.4500   0.00526   0.00145  -0.0984   0.0806   0.5952
   1.194   0.5000   0.00544   0.00159  -0.0973   0.0604   0.6032
   1.567   0.5500   0.00565   0.00175  -0.0960   0.0476   0.6045
   1.934   0.6000   0.00583   0.00190  -0.0947   0.0401   0.6052
   2.301   0.6500   0.00602   0.00207  -0.0933   0.0338   0.6057
   2.668   0.7000   0.00621   0.00225  -0.0916   0.0298   0.6072
