  
       XFOIL         Version 6.97
  
 Calculated polar for: NC090                                           
  
 1 1 Reynolds number fixed          Mach number fixed         
  
 xtrf =   1.000 (top)        1.000 (bottom)  
 Mach =   0.600     Re =    10.000 e 6     Ncrit =   9.000
  
   alpha    CL        CD       CDp       CM     Top_Xtr  Bot_Xtr
  ------ -------- --------- --------- -------- -------- --------
  -2.001   0.3000   0.00405   0.00083  -0.1538   0.9053   0.0071
  -1.317   0.3500   0.00438   0.00076  -0.1426   0.7844   0.0091
  -0.519   0.4000   0.00529   0.00101  -0.1287   0.5076   0.0970
  -0.105   0.4500   0.00520   0.00121  -0.1287   0.2817   0.5259
   0.280   0.5000   0.00536   0.00138  -0.1279   0.1882   0.6474
   0.671   0.5500   0.00573   0.00157  -0.1265   0.1165   0.6631
   1.056   0.6000   0.00609   0.00178  -0.1251   0.0645   0.6710
   1.434   0.6500   0.00639   0.00199  -0.1236   0.0349   0.6754
   1.809   0.7000   0.00662   0.00219  -0.1221   0.0250   0.6787
