  
       XFOIL         Version 6.97
  
 Calculated polar for: NC110                                           
  
 1 1 Reynolds number fixed          Mach number fixed         
  
 xtrf =   1.000 (top)        1.000 (bottom)  
 Mach =   0.500     Re =    25.000 e 6     Ncrit =   9.000
  
   alpha    CL        CD       CDp       CM     Top_Xtr  Bot_Xtr
  ------ -------- --------- --------- -------- -------- --------
  -0.843   0.3000   0.00554   0.00111  -0.1137   0.2463   0.1340
  -0.443   0.3500   0.00559   0.00115  -0.1134   0.1875   0.2020
  -0.053   0.4000   0.00553   0.00118  -0.1136   0.1388   0.3087
   0.315   0.4500   0.00523   0.00117  -0.1145   0.1011   0.4902
   0.695   0.5000   0.00514   0.00123  -0.1148   0.0744   0.5971
   1.087   0.5500   0.00529   0.00135  -0.1143   0.0536   0.6202
   1.477   0.6000   0.00545   0.00147  -0.1138   0.0423   0.6256
   1.868   0.6500   0.00562   0.00161  -0.1131   0.0337   0.6275
   2.257   0.7000   0.00581   0.00176  -0.1123   0.0274   0.6284
