  
       XFOIL         Version 6.97
  
 Calculated polar for: NE130                                           
  
 1 1 Reynolds number fixed          Mach number fixed         
  
 xtrf =   1.000 (top)        1.000 (bottom)  
 Mach =   0.600     Re =    10.000 e 6     Ncrit =   9.000
  
   alpha    CL        CD       CDp       CM     Top_Xtr  Bot_Xtr
  ------ -------- --------- --------- -------- -------- --------
  -0.899   0.3000   0.00511   0.00128  -0.1216   0.3012   0.5359
  -0.505   0.3500   0.00546   0.00143  -0.1202   0.2202   0.5507
  -0.122   0.4000   0.00577   0.00158  -0.1191   0.1556   0.5643
   0.260   0.4500   0.00611   0.00175  -0.1178   0.1031   0.5671
   0.626   0.5000   0.00635   0.00191  -0.1169   0.0772   0.5698
   0.985   0.5500   0.00655   0.00206  -0.1160   0.0608   0.5748
   1.343   0.6000   0.00675   0.00222  -0.1151   0.0521   0.5783
   1.698   0.6500   0.00692   0.00239  -0.1140   0.0484   0.5809
   2.070   0.7000   0.00713   0.00258  -0.1123   0.0426   0.5827
