  
       XFOIL         Version 6.97
  
 Calculated polar for: NE110                                           
  
 1 1 Reynolds number fixed          Mach number fixed         
  
 xtrf =   1.000 (top)        1.000 (bottom)  
 Mach =   0.700     Re =    15.000 e 6     Ncrit =   9.000
  
   alpha    CL        CD       CDp       CM     Top_Xtr  Bot_Xtr
  ------ -------- --------- --------- -------- -------- --------
  -1.218   0.3000   0.00649   0.00196  -0.1350   0.3119   0.0388
  -0.870   0.3500   0.00657   0.00197  -0.1337   0.2463   0.0862
  -0.727   0.4000   0.00550   0.00160  -0.1415   0.2105   0.4604
  -0.392   0.4500   0.00563   0.00169  -0.1406   0.1490   0.5186
  -0.046   0.5000   0.00585   0.00182  -0.1388   0.1065   0.5367
   0.289   0.5500   0.00603   0.00196  -0.1374   0.0820   0.5542
   0.618   0.6000   0.00620   0.00211  -0.1359   0.0656   0.5625
   0.942   0.6500   0.00639   0.00227  -0.1344   0.0586   0.5647
   1.261   0.7000   0.00655   0.00244  -0.1329   0.0528   0.5702
