  
       XFOIL         Version 6.97
  
 Calculated polar for: NC140                                           
  
 1 1 Reynolds number fixed          Mach number fixed         
  
 xtrf =   1.000 (top)        1.000 (bottom)  
 Mach =   0.800     Re =    30.000 e 6     Ncrit =   9.000
  
   alpha    CL        CD       CDp       CM     Top_Xtr  Bot_Xtr
  ------ -------- --------- --------- -------- -------- --------
   0.055   0.3500   0.00588   0.00255  -0.1061   0.1435   0.5537
   0.320   0.4000   0.00613   0.00275  -0.1048   0.1119   0.5644
   0.589   0.4500   0.00640   0.00298  -0.1032   0.0860   0.5696
   0.866   0.5000   0.00671   0.00326  -0.1012   0.0631   0.5775
   1.128   0.5500   0.00697   0.00353  -0.0995   0.0512   0.5834
   1.386   0.6000   0.00723   0.00379  -0.0977   0.0438   0.5844
   1.642   0.6500   0.00750   0.00407  -0.0957   0.0376   0.5850
   1.904   0.7000   0.00781   0.00440  -0.0932   0.0329   0.5854
