  
       XFOIL         Version 6.97
  
 Calculated polar for: NE100                                           
  
 1 1 Reynolds number fixed          Mach number fixed         
  
 xtrf =   1.000 (top)        1.000 (bottom)  
 Mach =   0.500     Re =    15.000 e 6     Ncrit =   9.000
  
   alpha    CL        CD       CDp       CM     Top_Xtr  Bot_Xtr
  ------ -------- --------- --------- -------- -------- --------
  -1.468   0.3000   0.00594   0.00121  -0.1315   0.3188   0.0283
  -1.070   0.3500   0.00606   0.00123  -0.1312   0.2515   0.0596
  -0.723   0.4000   0.00537   0.00111  -0.1332   0.2066   0.3820
  -0.339   0.4500   0.00527   0.00113  -0.1335   0.1495   0.5069
   0.047   0.5000   0.00536   0.00121  -0.1334   0.1156   0.5539
   0.437   0.5500   0.00553   0.00132  -0.1330   0.0853   0.5777
   0.821   0.6000   0.00570   0.00143  -0.1327   0.0704   0.5825
   1.202   0.6500   0.00585   0.00155  -0.1323   0.0617   0.5878
   1.583   0.7000   0.00600   0.00168  -0.1319   0.0527   0.5944
