  
       XFOIL         Version 6.97
  
 Calculated polar for: NC145                                           
  
 1 1 Reynolds number fixed          Mach number fixed         
  
 xtrf =   1.000 (top)        1.000 (bottom)  
 Mach =   0.800     Re =    15.000 e 6     Ncrit =   9.000
  
   alpha    CL        CD       CDp       CM     Top_Xtr  Bot_Xtr
  ------ -------- --------- --------- -------- -------- --------
  -0.041   0.3000   0.00572   0.00246  -0.0992   0.3049   0.5685
   0.337   0.3500   0.00651   0.00298  -0.0937   0.1877   0.5783
   0.667   0.4000   0.00708   0.00342  -0.0897   0.1236   0.5828
   0.961   0.4500   0.00751   0.00378  -0.0871   0.0890   0.5859
   1.247   0.5000   0.00791   0.00415  -0.0846   0.0653   0.5881
   1.523   0.5500   0.00830   0.00452  -0.0822   0.0501   0.5900
   1.786   0.6000   0.00864   0.00488  -0.0801   0.0428   0.5917
   2.051   0.6500   0.00901   0.00529  -0.0777   0.0379   0.5932
   2.307   0.7000   0.00938   0.00570  -0.0751   0.0348   0.5944
