  
       XFOIL         Version 6.97
  
 Calculated polar for: NE145                                           
  
 1 1 Reynolds number fixed          Mach number fixed         
  
 xtrf =   1.000 (top)        1.000 (bottom)  
 Mach =   0.800     Re =    10.000 e 6     Ncrit =   9.000
  
   alpha    CL        CD       CDp       CM     Top_Xtr  Bot_Xtr
  ------ -------- --------- --------- -------- -------- --------
  -0.248   0.3000   0.00733   0.00346  -0.1145   0.1492   0.5354
   0.316   0.4000   0.00815   0.00410  -0.1105   0.0732   0.5467
   0.580   0.4500   0.00848   0.00441  -0.1090   0.0574   0.5495
   0.839   0.5000   0.00880   0.00473  -0.1074   0.0485   0.5520
   1.094   0.5500   0.00912   0.00507  -0.1057   0.0429   0.5541
   1.349   0.6000   0.00946   0.00544  -0.1038   0.0402   0.5557
   1.605   0.6500   0.00984   0.00586  -0.1015   0.0380   0.5568
   1.864   0.7000   0.01029   0.00637  -0.0986   0.0371   0.5582
