  
       XFOIL         Version 6.97
  
 Calculated polar for: NC140                                           
  
 1 1 Reynolds number fixed          Mach number fixed         
  
 xtrf =   1.000 (top)        1.000 (bottom)  
 Mach =   0.700     Re =    15.000 e 6     Ncrit =   9.000
  
   alpha    CL        CD       CDp       CM     Top_Xtr  Bot_Xtr
  ------ -------- --------- --------- -------- -------- --------
  -0.405   0.3000   0.00484   0.00144  -0.1082   0.3263   0.5703
  -0.037   0.3500   0.00536   0.00171  -0.1061   0.2196   0.5821
   0.304   0.4000   0.00573   0.00192  -0.1045   0.1591   0.5860
   0.968   0.5000   0.00635   0.00236  -0.1017   0.0810   0.5979
   1.292   0.5500   0.00662   0.00258  -0.1003   0.0608   0.5992
   1.614   0.6000   0.00690   0.00282  -0.0987   0.0467   0.6001
   1.929   0.6500   0.00714   0.00305  -0.0972   0.0401   0.6007
   2.240   0.7000   0.00737   0.00329  -0.0955   0.0358   0.6012
