  
       XFOIL         Version 6.97
  
 Calculated polar for: NC100                                           
  
 1 1 Reynolds number fixed          Mach number fixed         
  
 xtrf =   1.000 (top)        1.000 (bottom)  
 Mach =   0.800     Re =    15.000 e 6     Ncrit =   9.000
  
   alpha    CL        CD       CDp       CM     Top_Xtr  Bot_Xtr
  ------ -------- --------- --------- -------- -------- --------
  -0.601   0.3500   0.00548   0.00184  -0.1317   0.6007   0.0524
  -0.157   0.4000   0.00604   0.00219  -0.1247   0.4172   0.1853
   0.056   0.4500   0.00546   0.00214  -0.1287   0.3213   0.5593
   0.404   0.5000   0.00600   0.00250  -0.1248   0.2009   0.6108
   0.722   0.5500   0.00648   0.00282  -0.1216   0.1239   0.6279
   1.023   0.6000   0.00687   0.00312  -0.1188   0.0812   0.6314
   1.315   0.6500   0.00724   0.00342  -0.1160   0.0517   0.6326
   1.592   0.7000   0.00754   0.00372  -0.1136   0.0355   0.6363
