  
       XFOIL         Version 6.97
  
 Calculated polar for: NC110                                           
  
 1 1 Reynolds number fixed          Mach number fixed         
  
 xtrf =   1.000 (top)        1.000 (bottom)  
 Mach =   0.600     Re =    20.000 e 6     Ncrit =   9.000
  
   alpha    CL        CD       CDp       CM     Top_Xtr  Bot_Xtr
  ------ -------- --------- --------- -------- -------- --------
  -0.775   0.3000   0.00551   0.00122  -0.1147   0.3171   0.1484
  -0.404   0.3500   0.00558   0.00127  -0.1144   0.2390   0.2386
   0.259   0.4500   0.00512   0.00129  -0.1168   0.1305   0.5887
   0.639   0.5000   0.00532   0.00143  -0.1157   0.0906   0.6131
   1.020   0.5500   0.00551   0.00157  -0.1144   0.0646   0.6243
   1.402   0.6000   0.00571   0.00172  -0.1128   0.0471   0.6266
   1.779   0.6500   0.00591   0.00187  -0.1112   0.0358   0.6279
   2.151   0.7000   0.00610   0.00204  -0.1096   0.0294   0.6286
