  
       XFOIL         Version 6.97
  
 Calculated polar for: NC110                                           
  
 1 1 Reynolds number fixed          Mach number fixed         
  
 xtrf =   1.000 (top)        1.000 (bottom)  
 Mach =   0.500     Re =    15.000 e 6     Ncrit =   9.000
  
   alpha    CL        CD       CDp       CM     Top_Xtr  Bot_Xtr
  ------ -------- --------- --------- -------- -------- --------
  -0.437   0.3500   0.00493   0.00101  -0.1139   0.2814   0.4728
  -0.035   0.4000   0.00491   0.00106  -0.1139   0.2059   0.5915
   0.376   0.4500   0.00516   0.00119  -0.1131   0.1446   0.6196
   0.784   0.5000   0.00543   0.00133  -0.1122   0.0990   0.6285
   1.185   0.5500   0.00566   0.00147  -0.1115   0.0701   0.6320
   1.584   0.6000   0.00588   0.00163  -0.1107   0.0495   0.6364
   1.980   0.6500   0.00609   0.00179  -0.1098   0.0371   0.6394
   2.373   0.7000   0.00629   0.00196  -0.1089   0.0297   0.6418
