  
       XFOIL         Version 6.97
  
 Calculated polar for: NE090                                           
  
 1 1 Reynolds number fixed          Mach number fixed         
  
 xtrf =   1.000 (top)        1.000 (bottom)  
 Mach =   0.700     Re =    15.000 e 6     Ncrit =   9.000
  
   alpha    CL        CD       CDp       CM     Top_Xtr  Bot_Xtr
  ------ -------- --------- --------- -------- -------- --------
  -1.844   0.3000   0.00577   0.00165  -0.1587   0.4670   0.0097
  -1.477   0.3500   0.00605   0.00164  -0.1563   0.3669   0.0103
  -1.134   0.4000   0.00626   0.00165  -0.1548   0.2955   0.0114
  -0.792   0.4500   0.00649   0.00171  -0.1534   0.2272   0.0130
  -0.453   0.5000   0.00672   0.00179  -0.1521   0.1648   0.0195
  -0.134   0.5500   0.00680   0.00187  -0.1515   0.1258   0.0670
   0.106   0.6000   0.00600   0.00181  -0.1550   0.0986   0.4809
   0.423   0.6500   0.00608   0.00194  -0.1542   0.0745   0.5369
   0.737   0.7000   0.00619   0.00208  -0.1533   0.0643   0.5707
