  
       XFOIL         Version 6.97
  
 Calculated polar for: NC145                                           
  
 1 1 Reynolds number fixed          Mach number fixed         
  
 xtrf =   1.000 (top)        1.000 (bottom)  
 Mach =   0.900     Re =    15.000 e 6     Ncrit =   9.000
  
   alpha    CL        CD       CDp       CM     Top_Xtr  Bot_Xtr
  ------ -------- --------- --------- -------- -------- --------
   0.196   0.3000   0.00635   0.00410  -0.0904   0.5265   0.5631
   1.326   0.3500   0.01332   0.01032  -0.0427   0.0794   0.5789
   1.531   0.4000   0.01413   0.01114  -0.0397   0.0586   0.5808
   1.709   0.4500   0.01476   0.01181  -0.0377   0.0501   0.5814
   1.876   0.5000   0.01534   0.01245  -0.0355   0.0479   0.5819
   2.056   0.5500   0.01611   0.01331  -0.0320   0.0512   0.5824
