  
       XFOIL         Version 6.97
  
 Calculated polar for: NC120                                           
  
 1 1 Reynolds number fixed          Mach number fixed         
  
 xtrf =   1.000 (top)        1.000 (bottom)  
 Mach =   0.400     Re =    10.000 e 6     Ncrit =   9.000
  
   alpha    CL        CD       CDp       CM     Top_Xtr  Bot_Xtr
  ------ -------- --------- --------- -------- -------- --------
  -0.617   0.3000   0.00421   0.00077  -0.1061   0.4448   0.5929
  -0.133   0.3500   0.00475   0.00095  -0.1043   0.3158   0.6107
   0.327   0.4000   0.00518   0.00112  -0.1030   0.2189   0.6249
   0.770   0.4500   0.00553   0.00126  -0.1021   0.1516   0.6291
   1.205   0.5000   0.00583   0.00141  -0.1013   0.1046   0.6329
   1.638   0.5500   0.00612   0.00158  -0.1005   0.0706   0.6357
   2.062   0.6000   0.00635   0.00173  -0.0999   0.0536   0.6379
   2.487   0.6500   0.00659   0.00191  -0.0991   0.0408   0.6394
   2.909   0.7000   0.00681   0.00208  -0.0983   0.0337   0.6404
