  
       XFOIL         Version 6.97
  
 Calculated polar for: NC140                                           
  
 1 1 Reynolds number fixed          Mach number fixed         
  
 xtrf =   1.000 (top)        1.000 (bottom)  
 Mach =   0.400     Re =    20.000 e 6     Ncrit =   9.000
  
   alpha    CL        CD       CDp       CM     Top_Xtr  Bot_Xtr
  ------ -------- --------- --------- -------- -------- --------
  -0.398   0.3000   0.00486   0.00102  -0.1010   0.1900   0.5595
   0.003   0.3500   0.00501   0.00110  -0.1013   0.1461   0.5806
   0.406   0.4000   0.00519   0.00119  -0.1014   0.1134   0.5920
   0.809   0.4500   0.00538   0.00130  -0.1014   0.0847   0.6009
   1.214   0.5000   0.00559   0.00142  -0.1014   0.0641   0.6013
   1.614   0.5500   0.00576   0.00154  -0.1013   0.0523   0.6028
   2.014   0.6000   0.00593   0.00167  -0.1013   0.0436   0.6064
   2.412   0.6500   0.00610   0.00180  -0.1012   0.0378   0.6096
   2.811   0.7000   0.00628   0.00195  -0.1011   0.0324   0.6120
