  
       XFOIL         Version 6.97
  
 Calculated polar for: NE110                                           
  
 1 1 Reynolds number fixed          Mach number fixed         
  
 xtrf =   1.000 (top)        1.000 (bottom)  
 Mach =   0.700     Re =    10.000 e 6     Ncrit =   9.000
  
   alpha    CL        CD       CDp       CM     Top_Xtr  Bot_Xtr
  ------ -------- --------- --------- -------- -------- --------
  -1.231   0.3000   0.00630   0.00193  -0.1347   0.4598   0.0479
  -0.672   0.4000   0.00543   0.00158  -0.1397   0.2772   0.5172
  -0.299   0.4500   0.00579   0.00175  -0.1373   0.1931   0.5436
   0.056   0.5000   0.00612   0.00194  -0.1353   0.1319   0.5580
   0.397   0.5500   0.00641   0.00213  -0.1336   0.0919   0.5696
   0.728   0.6000   0.00664   0.00232  -0.1320   0.0730   0.5743
   1.054   0.6500   0.00685   0.00251  -0.1305   0.0629   0.5778
   1.378   0.7000   0.00708   0.00271  -0.1287   0.0540   0.5801
