  
       XFOIL         Version 6.97
  
 Calculated polar for: NE120                                           
  
 1 1 Reynolds number fixed          Mach number fixed         
  
 xtrf =   1.000 (top)        1.000 (bottom)  
 Mach =   0.500     Re =    25.000 e 6     Ncrit =   9.000
  
   alpha    CL        CD       CDp       CM     Top_Xtr  Bot_Xtr
  ------ -------- --------- --------- -------- -------- --------
  -1.081   0.3000   0.00598   0.00139  -0.1208   0.1692   0.1342
  -0.775   0.3500   0.00505   0.00110  -0.1243   0.1435   0.4549
  -0.401   0.4000   0.00505   0.00113  -0.1246   0.1109   0.5117
  -0.022   0.4500   0.00514   0.00120  -0.1247   0.0856   0.5408
   0.357   0.5000   0.00527   0.00130  -0.1245   0.0676   0.5539
   0.734   0.5500   0.00540   0.00139  -0.1244   0.0600   0.5583
   1.109   0.6000   0.00553   0.00149  -0.1242   0.0534   0.5603
   1.486   0.6500   0.00569   0.00161  -0.1239   0.0475   0.5645
   1.859   0.7000   0.00581   0.00172  -0.1235   0.0436   0.5701
