  
       XFOIL         Version 6.97
  
 Calculated polar for: NC130                                           
  
 1 1 Reynolds number fixed          Mach number fixed         
  
 xtrf =   1.000 (top)        1.000 (bottom)  
 Mach =   0.700     Re =    30.000 e 6     Ncrit =   9.000
  
   alpha    CL        CD       CDp       CM     Top_Xtr  Bot_Xtr
  ------ -------- --------- --------- -------- -------- --------
  -0.103   0.3000   0.00520   0.00156  -0.0972   0.1647   0.4721
   0.195   0.3500   0.00512   0.00158  -0.0977   0.1284   0.5561
   0.525   0.4000   0.00528   0.00170  -0.0965   0.0979   0.5739
   0.858   0.4500   0.00548   0.00185  -0.0952   0.0720   0.5856
   1.187   0.5000   0.00566   0.00201  -0.0937   0.0575   0.5933
   1.518   0.5500   0.00586   0.00219  -0.0920   0.0452   0.5975
   1.853   0.6000   0.00606   0.00238  -0.0900   0.0378   0.6001
   2.179   0.6500   0.00626   0.00258  -0.0880   0.0333   0.6020
   2.499   0.7000   0.00645   0.00278  -0.0860   0.0296   0.6035
