  
       XFOIL         Version 6.97
  
 Calculated polar for: NC090                                           
  
 1 1 Reynolds number fixed          Mach number fixed         
  
 xtrf =   1.000 (top)        1.000 (bottom)  
 Mach =   0.800     Re =    10.000 e 6     Ncrit =   9.000
  
   alpha    CL        CD       CDp       CM     Top_Xtr  Bot_Xtr
  ------ -------- --------- --------- -------- -------- --------
  -2.034   0.3000   0.00556   0.00281  -0.1864   0.9103   0.0075
  -1.804   0.3500   0.00496   0.00208  -0.1869   0.9072   0.0074
  -1.511   0.4000   0.00453   0.00156  -0.1843   0.9004   0.0073
  -1.206   0.4500   0.00429   0.00122  -0.1812   0.8835   0.0075
   0.295   0.5000   0.00699   0.00262  -0.1282   0.3012   0.2087
   0.494   0.5500   0.00642   0.00272  -0.1326   0.2139   0.6225
   0.819   0.6000   0.00699   0.00310  -0.1291   0.1202   0.6515
   1.120   0.6500   0.00745   0.00345  -0.1262   0.0633   0.6611
   1.406   0.7000   0.00785   0.00379  -0.1236   0.0339   0.6635
