  
       XFOIL         Version 6.97
  
 Calculated polar for: NC100                                           
  
 1 1 Reynolds number fixed          Mach number fixed         
  
 xtrf =   1.000 (top)        1.000 (bottom)  
 Mach =   0.800     Re =    30.000 e 6     Ncrit =   9.000
  
   alpha    CL        CD       CDp       CM     Top_Xtr  Bot_Xtr
  ------ -------- --------- --------- -------- -------- --------
  -0.711   0.3000   0.00596   0.00206  -0.1273   0.3756   0.0187
  -0.397   0.3500   0.00622   0.00217  -0.1247   0.2928   0.0387
  -0.109   0.4000   0.00639   0.00228  -0.1232   0.2288   0.0801
   0.427   0.5000   0.00656   0.00255  -0.1221   0.1157   0.2709
   0.607   0.5500   0.00599   0.00251  -0.1262   0.0906   0.5674
   0.880   0.6000   0.00618   0.00271  -0.1246   0.0647   0.6004
   1.154   0.6500   0.00642   0.00294  -0.1227   0.0438   0.6159
   1.425   0.7000   0.00666   0.00318  -0.1205   0.0315   0.6225
