  
       XFOIL         Version 6.97
  
 Calculated polar for: NC130                                           
  
 1 1 Reynolds number fixed          Mach number fixed         
  
 xtrf =   1.000 (top)        1.000 (bottom)  
 Mach =   0.400     Re =    30.000 e 6     Ncrit =   9.000
  
   alpha    CL        CD       CDp       CM     Top_Xtr  Bot_Xtr
  ------ -------- --------- --------- -------- -------- --------
  -0.352   0.3000   0.00571   0.00119  -0.0982   0.1460   0.2067
   0.027   0.3500   0.00525   0.00110  -0.0997   0.1173   0.4142
   0.411   0.4000   0.00496   0.00107  -0.1008   0.0918   0.5546
   0.817   0.4500   0.00503   0.00115  -0.1009   0.0709   0.5894
   1.230   0.5000   0.00517   0.00125  -0.1006   0.0550   0.6036
   1.643   0.5500   0.00533   0.00136  -0.1003   0.0438   0.6051
   2.055   0.6000   0.00549   0.00148  -0.0999   0.0370   0.6057
   2.467   0.6500   0.00565   0.00160  -0.0994   0.0328   0.6079
   2.876   0.7000   0.00580   0.00173  -0.0990   0.0294   0.6123
