  
       XFOIL         Version 6.97
  
 Calculated polar for: NC130                                           
  
 1 1 Reynolds number fixed          Mach number fixed         
  
 xtrf =   1.000 (top)        1.000 (bottom)  
 Mach =   0.800     Re =    20.000 e 6     Ncrit =   9.000
  
   alpha    CL        CD       CDp       CM     Top_Xtr  Bot_Xtr
  ------ -------- --------- --------- -------- -------- --------
   0.172   0.3000   0.00561   0.00232  -0.0910   0.2378   0.5693
   0.511   0.3500   0.00609   0.00264  -0.0870   0.1633   0.5788
   0.831   0.4000   0.00649   0.00294  -0.0836   0.1122   0.5875
   1.132   0.4500   0.00683   0.00324  -0.0808   0.0830   0.5934
   1.425   0.5000   0.00717   0.00354  -0.0781   0.0597   0.5971
   1.705   0.5500   0.00747   0.00384  -0.0756   0.0481   0.5989
   1.986   0.6000   0.00778   0.00416  -0.0728   0.0408   0.6005
   2.258   0.6500   0.00809   0.00450  -0.0700   0.0351   0.6018
   2.524   0.7000   0.00841   0.00485  -0.0671   0.0313   0.6030
