  
       XFOIL         Version 6.97
  
 Calculated polar for: NC120                                           
  
 1 1 Reynolds number fixed          Mach number fixed         
  
 xtrf =   1.000 (top)        1.000 (bottom)  
 Mach =   0.600     Re =    10.000 e 6     Ncrit =   9.000
  
   alpha    CL        CD       CDp       CM     Top_Xtr  Bot_Xtr
  ------ -------- --------- --------- -------- -------- --------
  -0.595   0.3000   0.00392   0.00082  -0.1099   0.5262   0.5881
  -0.118   0.3500   0.00464   0.00109  -0.1062   0.3657   0.6065
   0.318   0.4000   0.00520   0.00133  -0.1036   0.2461   0.6195
   0.732   0.4500   0.00565   0.00155  -0.1015   0.1627   0.6235
   1.131   0.5000   0.00603   0.00176  -0.0996   0.1055   0.6247
   1.518   0.5500   0.00634   0.00196  -0.0980   0.0730   0.6263
   1.901   0.6000   0.00661   0.00217  -0.0964   0.0520   0.6301
   2.281   0.6500   0.00686   0.00239  -0.0946   0.0400   0.6331
   2.657   0.7000   0.00711   0.00262  -0.0928   0.0331   0.6353
