  
       XFOIL         Version 6.97
  
 Calculated polar for: NE090                                           
  
 1 1 Reynolds number fixed          Mach number fixed         
  
 xtrf =   1.000 (top)        1.000 (bottom)  
 Mach =   0.700     Re =    30.000 e 6     Ncrit =   9.000
  
   alpha    CL        CD       CDp       CM     Top_Xtr  Bot_Xtr
  ------ -------- --------- --------- -------- -------- --------
  -1.835   0.3000   0.00581   0.00157  -0.1593   0.2587   0.0093
  -1.522   0.3500   0.00589   0.00155  -0.1586   0.2225   0.0097
  -1.208   0.4000   0.00597   0.00155  -0.1579   0.1879   0.0098
  -0.886   0.4500   0.00611   0.00158  -0.1571   0.1441   0.0103
  -0.569   0.5000   0.00621   0.00162  -0.1565   0.1158   0.0131
  -0.253   0.5500   0.00631   0.00168  -0.1559   0.0923   0.0229
   0.056   0.6000   0.00635   0.00175  -0.1554   0.0737   0.0643
   0.313   0.6500   0.00575   0.00175  -0.1577   0.0642   0.4086
   0.610   0.7000   0.00564   0.00181  -0.1576   0.0589   0.5095
