  
       XFOIL         Version 6.97
  
 Calculated polar for: NC090                                           
  
 1 1 Reynolds number fixed          Mach number fixed         
  
 xtrf =   1.000 (top)        1.000 (bottom)  
 Mach =   0.500     Re =    30.000 e 6     Ncrit =   9.000
  
   alpha    CL        CD       CDp       CM     Top_Xtr  Bot_Xtr
  ------ -------- --------- --------- -------- -------- --------
  -1.316   0.3000   0.00539   0.00097  -0.1279   0.2886   0.0070
  -0.902   0.3500   0.00559   0.00100  -0.1271   0.2154   0.0109
  -0.487   0.4000   0.00577   0.00106  -0.1263   0.1338   0.0392
  -0.097   0.4500   0.00577   0.00109  -0.1261   0.1029   0.1054
   0.281   0.5000   0.00552   0.00115  -0.1266   0.0751   0.3065
   0.665   0.5500   0.00540   0.00122  -0.1268   0.0485   0.4482
   1.054   0.6000   0.00543   0.00133  -0.1266   0.0286   0.5236
   1.437   0.6500   0.00544   0.00143  -0.1264   0.0228   0.5894
   1.821   0.7000   0.00551   0.00156  -0.1259   0.0187   0.6324
