  
       XFOIL         Version 6.97
  
 Calculated polar for: NE140                                           
  
 1 1 Reynolds number fixed          Mach number fixed         
  
 xtrf =   1.000 (top)        1.000 (bottom)  
 Mach =   0.400     Re =    20.000 e 6     Ncrit =   9.000
  
   alpha    CL        CD       CDp       CM     Top_Xtr  Bot_Xtr
  ------ -------- --------- --------- -------- -------- --------
  -0.760   0.3000   0.00506   0.00106  -0.1132   0.1365   0.5234
  -0.368   0.3500   0.00517   0.00112  -0.1137   0.1060   0.5442
   0.027   0.4000   0.00533   0.00121  -0.1139   0.0804   0.5559
   0.423   0.4500   0.00549   0.00131  -0.1141   0.0638   0.5594
   0.817   0.5000   0.00565   0.00141  -0.1143   0.0537   0.5611
   1.208   0.5500   0.00578   0.00151  -0.1144   0.0479   0.5632
   1.600   0.6000   0.00593   0.00162  -0.1146   0.0431   0.5688
   1.989   0.6500   0.00605   0.00173  -0.1147   0.0410   0.5728
   2.380   0.7000   0.00620   0.00186  -0.1147   0.0389   0.5753
