  
       XFOIL         Version 6.97
  
 Calculated polar for: NC100                                           
  
 1 1 Reynolds number fixed          Mach number fixed         
  
 xtrf =   1.000 (top)        1.000 (bottom)  
 Mach =   0.500     Re =    15.000 e 6     Ncrit =   9.000
  
   alpha    CL        CD       CDp       CM     Top_Xtr  Bot_Xtr
  ------ -------- --------- --------- -------- -------- --------
  -1.097   0.3000   0.00523   0.00097  -0.1207   0.4538   0.0998
  -0.655   0.3500   0.00534   0.00103  -0.1196   0.3367   0.2273
  -0.248   0.4000   0.00512   0.00105  -0.1198   0.2315   0.4662
   0.154   0.4500   0.00509   0.00112  -0.1197   0.1598   0.6008
   0.560   0.5000   0.00530   0.00125  -0.1190   0.1081   0.6309
   0.963   0.5500   0.00554   0.00140  -0.1183   0.0726   0.6453
   1.363   0.6000   0.00577   0.00155  -0.1175   0.0487   0.6472
   1.759   0.6500   0.00600   0.00171  -0.1167   0.0340   0.6504
   2.151   0.7000   0.00619   0.00187  -0.1159   0.0261   0.6553
