  
       XFOIL         Version 6.97
  
 Calculated polar for: NE120                                           
  
 1 1 Reynolds number fixed          Mach number fixed         
  
 xtrf =   1.000 (top)        1.000 (bottom)  
 Mach =   0.500     Re =    20.000 e 6     Ncrit =   9.000
  
   alpha    CL        CD       CDp       CM     Top_Xtr  Bot_Xtr
  ------ -------- --------- --------- -------- -------- --------
  -1.127   0.3000   0.00518   0.00114  -0.1232   0.2003   0.4034
  -0.763   0.3500   0.00502   0.00109  -0.1241   0.1635   0.4965
  -0.381   0.4000   0.00511   0.00115  -0.1241   0.1295   0.5304
   0.006   0.4500   0.00528   0.00125  -0.1239   0.0921   0.5500
   0.387   0.5000   0.00543   0.00134  -0.1237   0.0742   0.5597
   0.766   0.5500   0.00558   0.00144  -0.1235   0.0636   0.5621
   1.145   0.6000   0.00572   0.00156  -0.1232   0.0540   0.5684
   1.521   0.6500   0.00586   0.00167  -0.1229   0.0503   0.5726
   1.897   0.7000   0.00602   0.00181  -0.1225   0.0442   0.5749
