  
       XFOIL         Version 6.97
  
 Calculated polar for: NE130                                           
  
 1 1 Reynolds number fixed          Mach number fixed         
  
 xtrf =   1.000 (top)        1.000 (bottom)  
 Mach =   0.800     Re =    15.000 e 6     Ncrit =   9.000
  
   alpha    CL        CD       CDp       CM     Top_Xtr  Bot_Xtr
  ------ -------- --------- --------- -------- -------- --------
  -0.081   0.3500   0.00678   0.00301  -0.1148   0.1203   0.5223
   0.195   0.4000   0.00707   0.00324  -0.1132   0.0844   0.5338
   0.468   0.4500   0.00733   0.00347  -0.1114   0.0662   0.5429
   0.731   0.5000   0.00757   0.00371  -0.1098   0.0566   0.5478
   0.991   0.5500   0.00780   0.00394  -0.1082   0.0502   0.5500
   1.246   0.6000   0.00804   0.00420  -0.1064   0.0471   0.5516
   1.504   0.6500   0.00832   0.00449  -0.1042   0.0429   0.5528
   1.757   0.7000   0.00858   0.00480  -0.1020   0.0414   0.5567
