  
       XFOIL         Version 6.97
  
 Calculated polar for: NE130                                           
  
 1 1 Reynolds number fixed          Mach number fixed         
  
 xtrf =   1.000 (top)        1.000 (bottom)  
 Mach =   0.500     Re =    15.000 e 6     Ncrit =   9.000
  
   alpha    CL        CD       CDp       CM     Top_Xtr  Bot_Xtr
  ------ -------- --------- --------- -------- -------- --------
  -0.895   0.3000   0.00504   0.00111  -0.1180   0.2096   0.5204
  -0.504   0.3500   0.00522   0.00119  -0.1177   0.1602   0.5407
  -0.111   0.4000   0.00543   0.00130  -0.1174   0.1131   0.5583
   0.276   0.4500   0.00562   0.00141  -0.1171   0.0852   0.5644
   0.660   0.5000   0.00580   0.00152  -0.1167   0.0686   0.5669
   1.042   0.5500   0.00598   0.00164  -0.1164   0.0575   0.5684
   1.421   0.6000   0.00613   0.00177  -0.1160   0.0503   0.5741
   1.800   0.6500   0.00629   0.00191  -0.1155   0.0455   0.5783
   2.177   0.7000   0.00645   0.00205  -0.1150   0.0421   0.5811
