  
       XFOIL         Version 6.97
  
 Calculated polar for: NE100                                           
  
 1 1 Reynolds number fixed          Mach number fixed         
  
 xtrf =   1.000 (top)        1.000 (bottom)  
 Mach =   0.800     Re =    20.000 e 6     Ncrit =   9.000
  
   alpha    CL        CD       CDp       CM     Top_Xtr  Bot_Xtr
  ------ -------- --------- --------- -------- -------- --------
  -1.194   0.3000   0.00674   0.00255  -0.1479   0.3106   0.0119
  -0.917   0.3500   0.00694   0.00261  -0.1464   0.2538   0.0132
  -0.633   0.4000   0.00719   0.00270  -0.1448   0.1914   0.0175
  -0.364   0.4500   0.00736   0.00280  -0.1437   0.1483   0.0287
  -0.101   0.5000   0.00752   0.00292  -0.1428   0.1135   0.0538
   0.242   0.6000   0.00665   0.00281  -0.1508   0.0754   0.4926
   0.497   0.6500   0.00676   0.00297  -0.1498   0.0645   0.5279
   0.755   0.7000   0.00693   0.00316  -0.1483   0.0588   0.5444
