  
       XFOIL         Version 6.97
  
 Calculated polar for: NE140                                           
  
 1 1 Reynolds number fixed          Mach number fixed         
  
 xtrf =   1.000 (top)        1.000 (bottom)  
 Mach =   0.800     Re =    25.000 e 6     Ncrit =   9.000
  
   alpha    CL        CD       CDp       CM     Top_Xtr  Bot_Xtr
  ------ -------- --------- --------- -------- -------- --------
  -0.353   0.3500   0.00652   0.00292  -0.1276   0.0779   0.5059
  -0.102   0.4000   0.00673   0.00310  -0.1268   0.0580   0.5149
   0.136   0.4500   0.00689   0.00326  -0.1264   0.0499   0.5263
   0.382   0.5000   0.00707   0.00346  -0.1255   0.0467   0.5306
   0.633   0.5500   0.00729   0.00368  -0.1241   0.0427   0.5333
   0.874   0.6000   0.00749   0.00390  -0.1230   0.0410   0.5373
   1.113   0.6500   0.00769   0.00413  -0.1217   0.0398   0.5403
   1.355   0.7000   0.00794   0.00440  -0.1199   0.0380   0.5427
