  
       XFOIL         Version 6.97
  
 Calculated polar for: NC110                                           
  
 1 1 Reynolds number fixed          Mach number fixed         
  
 xtrf =   1.000 (top)        1.000 (bottom)  
 Mach =   0.700     Re =    30.000 e 6     Ncrit =   9.000
  
   alpha    CL        CD       CDp       CM     Top_Xtr  Bot_Xtr
  ------ -------- --------- --------- -------- -------- --------
  -0.612   0.3000   0.00571   0.00148  -0.1141   0.2451   0.0943
   0.036   0.4000   0.00584   0.00162  -0.1132   0.1456   0.2170
   0.280   0.4500   0.00532   0.00157  -0.1164   0.1143   0.4863
   0.589   0.5000   0.00529   0.00166  -0.1163   0.0857   0.5753
   0.918   0.5500   0.00546   0.00181  -0.1151   0.0609   0.6031
   1.247   0.6000   0.00565   0.00198  -0.1136   0.0452   0.6126
   1.571   0.6500   0.00584   0.00215  -0.1120   0.0353   0.6132
   1.892   0.7000   0.00603   0.00233  -0.1103   0.0291   0.6168
