  
       XFOIL         Version 6.97
  
 Calculated polar for: NC120                                           
  
 1 1 Reynolds number fixed          Mach number fixed         
  
 xtrf =   1.000 (top)        1.000 (bottom)  
 Mach =   0.700     Re =    30.000 e 6     Ncrit =   9.000
  
   alpha    CL        CD       CDp       CM     Top_Xtr  Bot_Xtr
  ------ -------- --------- --------- -------- -------- --------
   0.219   0.4000   0.00513   0.00155  -0.1077   0.1254   0.5462
   0.546   0.4500   0.00527   0.00167  -0.1068   0.0927   0.5773
   0.877   0.5000   0.00545   0.00182  -0.1054   0.0675   0.5933
   1.204   0.5500   0.00563   0.00198  -0.1041   0.0531   0.6046
   1.531   0.6000   0.00583   0.00216  -0.1025   0.0409   0.6068
   1.856   0.6500   0.00602   0.00234  -0.1007   0.0341   0.6081
   2.185   0.7000   0.00623   0.00254  -0.0985   0.0299   0.6089
