  
       XFOIL         Version 6.97
  
 Calculated polar for: NE100                                           
  
 1 1 Reynolds number fixed          Mach number fixed         
  
 xtrf =   1.000 (top)        1.000 (bottom)  
 Mach =   0.600     Re =    15.000 e 6     Ncrit =   9.000
  
   alpha    CL        CD       CDp       CM     Top_Xtr  Bot_Xtr
  ------ -------- --------- --------- -------- -------- --------
  -1.549   0.3000   0.00597   0.00140  -0.1390   0.3566   0.0198
  -1.164   0.3500   0.00621   0.00144  -0.1379   0.2683   0.0336
  -0.806   0.4000   0.00627   0.00147  -0.1377   0.2187   0.0801
  -0.512   0.4500   0.00541   0.00129  -0.1408   0.1760   0.4573
  -0.152   0.5000   0.00547   0.00138  -0.1405   0.1243   0.5337
   0.206   0.5500   0.00563   0.00149  -0.1400   0.0917   0.5603
   0.561   0.6000   0.00580   0.00161  -0.1395   0.0740   0.5729
   0.913   0.6500   0.00595   0.00173  -0.1389   0.0635   0.5793
   1.264   0.7000   0.00612   0.00188  -0.1381   0.0543   0.5830
