  
       XFOIL         Version 6.97
  
 Calculated polar for: NC140                                           
  
 1 1 Reynolds number fixed          Mach number fixed         
  
 xtrf =   1.000 (top)        1.000 (bottom)  
 Mach =   0.500     Re =    15.000 e 6     Ncrit =   9.000
  
   alpha    CL        CD       CDp       CM     Top_Xtr  Bot_Xtr
  ------ -------- --------- --------- -------- -------- --------
  -0.436   0.3000   0.00482   0.00110  -0.1035   0.2591   0.5797
  -0.038   0.3500   0.00513   0.00123  -0.1031   0.1928   0.5866
   0.351   0.4000   0.00539   0.00136  -0.1028   0.1413   0.5995
   0.741   0.4500   0.00565   0.00150  -0.1024   0.1032   0.6013
   1.126   0.5000   0.00589   0.00164  -0.1021   0.0746   0.6031
   1.506   0.5500   0.00609   0.00178  -0.1018   0.0589   0.6064
   1.885   0.6000   0.00629   0.00193  -0.1015   0.0465   0.6093
   2.262   0.6500   0.00648   0.00209  -0.1011   0.0391   0.6115
   2.637   0.7000   0.00667   0.00226  -0.1006   0.0350   0.6133
