  
       XFOIL         Version 6.97
  
 Calculated polar for: NC145                                           
  
 1 1 Reynolds number fixed          Mach number fixed         
  
 xtrf =   1.000 (top)        1.000 (bottom)  
 Mach =   0.500     Re =    10.000 e 6     Ncrit =   9.000
  
   alpha    CL        CD       CDp       CM     Top_Xtr  Bot_Xtr
  ------ -------- --------- --------- -------- -------- --------
  -0.318   0.3000   0.00476   0.00111  -0.0999   0.3608   0.5930
   0.122   0.3500   0.00535   0.00134  -0.0983   0.2406   0.5993
   0.526   0.4000   0.00571   0.00150  -0.0977   0.1722   0.6057
   0.926   0.4500   0.00604   0.00167  -0.0970   0.1201   0.6081
   1.319   0.5000   0.00633   0.00184  -0.0965   0.0862   0.6101
   1.708   0.5500   0.00659   0.00201  -0.0959   0.0631   0.6117
   2.092   0.6000   0.00681   0.00219  -0.0954   0.0502   0.6129
   2.475   0.6500   0.00703   0.00237  -0.0948   0.0426   0.6138
   2.858   0.7000   0.00726   0.00257  -0.0940   0.0364   0.6145
