  
       XFOIL         Version 6.97
  
 Calculated polar for: NC110                                           
  
 1 1 Reynolds number fixed          Mach number fixed         
  
 xtrf =   1.000 (top)        1.000 (bottom)  
 Mach =   0.700     Re =    20.000 e 6     Ncrit =   9.000
  
   alpha    CL        CD       CDp       CM     Top_Xtr  Bot_Xtr
  ------ -------- --------- --------- -------- -------- --------
  -0.602   0.3000   0.00559   0.00147  -0.1134   0.3513   0.1339
  -0.257   0.3500   0.00572   0.00156  -0.1125   0.2668   0.2241
  -0.012   0.4000   0.00509   0.00147  -0.1163   0.2044   0.5446
   0.328   0.4500   0.00528   0.00161  -0.1151   0.1460   0.5928
   0.671   0.5000   0.00553   0.00179  -0.1135   0.1010   0.6115
   1.010   0.5500   0.00579   0.00197  -0.1119   0.0701   0.6194
   1.341   0.6000   0.00601   0.00215  -0.1103   0.0510   0.6225
   1.672   0.6500   0.00624   0.00236  -0.1085   0.0381   0.6249
   2.003   0.7000   0.00647   0.00257  -0.1064   0.0298   0.6267
