  
       XFOIL         Version 6.97
  
 Calculated polar for: NE120                                           
  
 1 1 Reynolds number fixed          Mach number fixed         
  
 xtrf =   1.000 (top)        1.000 (bottom)  
 Mach =   0.500     Re =    15.000 e 6     Ncrit =   9.000
  
   alpha    CL        CD       CDp       CM     Top_Xtr  Bot_Xtr
  ------ -------- --------- --------- -------- -------- --------
  -1.133   0.3000   0.00493   0.00105  -0.1236   0.2562   0.4818
  -0.741   0.3500   0.00506   0.00110  -0.1235   0.1952   0.5263
  -0.350   0.4000   0.00524   0.00119  -0.1232   0.1517   0.5461
   0.043   0.4500   0.00546   0.00130  -0.1228   0.1072   0.5613
   0.430   0.5000   0.00565   0.00141  -0.1225   0.0824   0.5685
   0.812   0.5500   0.00582   0.00153  -0.1222   0.0663   0.5727
   1.193   0.6000   0.00598   0.00165  -0.1219   0.0588   0.5750
   1.570   0.6500   0.00613   0.00177  -0.1215   0.0528   0.5782
   1.950   0.7000   0.00630   0.00192  -0.1210   0.0458   0.5837
