  
       XFOIL         Version 6.97
  
 Calculated polar for: NE145                                           
  
 1 1 Reynolds number fixed          Mach number fixed         
  
 xtrf =   1.000 (top)        1.000 (bottom)  
 Mach =   0.700     Re =    15.000 e 6     Ncrit =   9.000
  
   alpha    CL        CD       CDp       CM     Top_Xtr  Bot_Xtr
  ------ -------- --------- --------- -------- -------- --------
  -0.699   0.3000   0.00577   0.00189  -0.1233   0.1540   0.5256
  -0.385   0.3500   0.00600   0.00203  -0.1227   0.1118   0.5372
  -0.072   0.4000   0.00622   0.00218  -0.1219   0.0830   0.5444
   0.249   0.4500   0.00640   0.00232  -0.1207   0.0655   0.5490
   0.572   0.5000   0.00660   0.00248  -0.1193   0.0514   0.5524
   0.888   0.5500   0.00679   0.00266  -0.1180   0.0434   0.5549
   1.191   0.6000   0.00699   0.00285  -0.1170   0.0398   0.5564
   1.494   0.6500   0.00721   0.00307  -0.1158   0.0365   0.5572
   1.795   0.7000   0.00742   0.00329  -0.1143   0.0347   0.5600
