  
       XFOIL         Version 6.97
  
 Calculated polar for: NC120                                           
  
 1 1 Reynolds number fixed          Mach number fixed         
  
 xtrf =   1.000 (top)        1.000 (bottom)  
 Mach =   0.600     Re =    25.000 e 6     Ncrit =   9.000
  
   alpha    CL        CD       CDp       CM     Top_Xtr  Bot_Xtr
  ------ -------- --------- --------- -------- -------- --------
  -0.487   0.3000   0.00570   0.00134  -0.1056   0.2152   0.1782
  -0.198   0.3500   0.00518   0.00124  -0.1086   0.1683   0.4306
   0.129   0.4000   0.00498   0.00124  -0.1097   0.1322   0.5613
   0.505   0.4500   0.00512   0.00134  -0.1087   0.0987   0.5890
   0.884   0.5000   0.00528   0.00147  -0.1075   0.0708   0.6071
   1.263   0.5500   0.00547   0.00160  -0.1061   0.0533   0.6092
   1.637   0.6000   0.00567   0.00175  -0.1047   0.0417   0.6103
   2.006   0.6500   0.00585   0.00191  -0.1033   0.0344   0.6143
   2.371   0.7000   0.00603   0.00208  -0.1018   0.0293   0.6179
