  
       XFOIL         Version 6.97
  
 Calculated polar for: NE120                                           
  
 1 1 Reynolds number fixed          Mach number fixed         
  
 xtrf =   1.000 (top)        1.000 (bottom)  
 Mach =   0.700     Re =    20.000 e 6     Ncrit =   9.000
  
   alpha    CL        CD       CDp       CM     Top_Xtr  Bot_Xtr
  ------ -------- --------- --------- -------- -------- --------
  -0.898   0.3000   0.00652   0.00208  -0.1239   0.2107   0.1123
  -0.477   0.4000   0.00545   0.00165  -0.1329   0.1342   0.5102
  -0.143   0.4500   0.00562   0.00176  -0.1316   0.1012   0.5288
   0.186   0.5000   0.00579   0.00188  -0.1303   0.0768   0.5421
   0.508   0.5500   0.00595   0.00202  -0.1291   0.0645   0.5503
   0.828   0.6000   0.00612   0.00218  -0.1278   0.0544   0.5550
   1.147   0.6500   0.00629   0.00234  -0.1263   0.0512   0.5582
   1.467   0.7000   0.00648   0.00252  -0.1246   0.0444   0.5601
