  
       XFOIL         Version 6.97
  
 Calculated polar for: NC140                                           
  
 1 1 Reynolds number fixed          Mach number fixed         
  
 xtrf =   1.000 (top)        1.000 (bottom)  
 Mach =   0.800     Re =    25.000 e 6     Ncrit =   9.000
  
   alpha    CL        CD       CDp       CM     Top_Xtr  Bot_Xtr
  ------ -------- --------- --------- -------- -------- --------
  -0.214   0.3000   0.00558   0.00234  -0.1073   0.2255   0.5468
   0.079   0.3500   0.00597   0.00260  -0.1051   0.1604   0.5619
   0.360   0.4000   0.00629   0.00285  -0.1032   0.1195   0.5693
   0.640   0.4500   0.00661   0.00312  -0.1011   0.0896   0.5757
   0.914   0.5000   0.00692   0.00341  -0.0992   0.0665   0.5832
   1.181   0.5500   0.00721   0.00368  -0.0972   0.0525   0.5849
   1.441   0.6000   0.00749   0.00396  -0.0954   0.0444   0.5854
   1.706   0.6500   0.00780   0.00429  -0.0930   0.0379   0.5858
   1.965   0.7000   0.00811   0.00462  -0.0907   0.0340   0.5860
