  
       XFOIL         Version 6.97
  
 Calculated polar for: NE145                                           
  
 1 1 Reynolds number fixed          Mach number fixed         
  
 xtrf =   1.000 (top)        1.000 (bottom)  
 Mach =   0.600     Re =    15.000 e 6     Ncrit =   9.000
  
   alpha    CL        CD       CDp       CM     Top_Xtr  Bot_Xtr
  ------ -------- --------- --------- -------- -------- --------
  -0.735   0.3000   0.00546   0.00148  -0.1190   0.1575   0.5330
  -0.390   0.3500   0.00565   0.00159  -0.1189   0.1178   0.5445
  -0.047   0.4000   0.00584   0.00170  -0.1188   0.0889   0.5533
   0.296   0.4500   0.00603   0.00183  -0.1186   0.0687   0.5556
   0.639   0.5000   0.00623   0.00197  -0.1182   0.0546   0.5570
   0.979   0.5500   0.00641   0.00211  -0.1179   0.0462   0.5590
   1.313   0.6000   0.00656   0.00226  -0.1176   0.0413   0.5638
   1.649   0.6500   0.00674   0.00242  -0.1171   0.0369   0.5672
   1.984   0.7000   0.00691   0.00259  -0.1164   0.0352   0.5697
