  
       XFOIL         Version 6.97
  
 Calculated polar for: NE110                                           
  
 1 1 Reynolds number fixed          Mach number fixed         
  
 xtrf =   1.000 (top)        1.000 (bottom)  
 Mach =   0.600     Re =    30.000 e 6     Ncrit =   9.000
  
   alpha    CL        CD       CDp       CM     Top_Xtr  Bot_Xtr
  ------ -------- --------- --------- -------- -------- --------
  -1.359   0.3000   0.00598   0.00146  -0.1333   0.1897   0.0344
  -1.007   0.3500   0.00605   0.00148  -0.1332   0.1491   0.0563
  -0.665   0.4000   0.00602   0.00149  -0.1335   0.1193   0.1216
  -0.043   0.5000   0.00521   0.00134  -0.1369   0.0769   0.5045
   0.300   0.5500   0.00526   0.00142  -0.1368   0.0652   0.5356
   0.647   0.6000   0.00538   0.00152  -0.1365   0.0551   0.5491
   0.991   0.6500   0.00550   0.00163  -0.1360   0.0520   0.5525
   1.336   0.7000   0.00564   0.00175  -0.1354   0.0447   0.5591
