  
       XFOIL         Version 6.97
  
 Calculated polar for: NC130                                           
  
 1 1 Reynolds number fixed          Mach number fixed         
  
 xtrf =   1.000 (top)        1.000 (bottom)  
 Mach =   0.500     Re =    25.000 e 6     Ncrit =   9.000
  
   alpha    CL        CD       CDp       CM     Top_Xtr  Bot_Xtr
  ------ -------- --------- --------- -------- -------- --------
  -0.373   0.3000   0.00512   0.00113  -0.1009   0.1801   0.4289
   0.387   0.4000   0.00504   0.00119  -0.1015   0.1037   0.5792
   0.776   0.4500   0.00517   0.00128  -0.1012   0.0817   0.5982
   1.171   0.5000   0.00535   0.00141  -0.1006   0.0601   0.6047
   1.565   0.5500   0.00552   0.00153  -0.0999   0.0486   0.6054
   1.958   0.6000   0.00570   0.00166  -0.0991   0.0401   0.6058
   2.348   0.6500   0.00586   0.00180  -0.0983   0.0343   0.6093
   2.739   0.7000   0.00603   0.00195  -0.0974   0.0300   0.6131
