  
       XFOIL         Version 6.97
  
 Calculated polar for: NE120                                           
  
 1 1 Reynolds number fixed          Mach number fixed         
  
 xtrf =   1.000 (top)        1.000 (bottom)  
 Mach =   0.800     Re =    15.000 e 6     Ncrit =   9.000
  
   alpha    CL        CD       CDp       CM     Top_Xtr  Bot_Xtr
  ------ -------- --------- --------- -------- -------- --------
  -0.467   0.3500   0.00627   0.00263  -0.1296   0.2032   0.4960
   0.102   0.4500   0.00691   0.00307  -0.1259   0.0984   0.5297
   0.365   0.5000   0.00714   0.00327  -0.1246   0.0767   0.5406
   0.631   0.5500   0.00737   0.00350  -0.1230   0.0648   0.5466
   0.892   0.6000   0.00761   0.00373  -0.1213   0.0575   0.5514
   1.145   0.6500   0.00781   0.00396  -0.1197   0.0528   0.5548
   1.397   0.7000   0.00806   0.00421  -0.1178   0.0485   0.5575
