  
       XFOIL         Version 6.97
  
 Calculated polar for: NE120                                           
  
 1 1 Reynolds number fixed          Mach number fixed         
  
 xtrf =   1.000 (top)        1.000 (bottom)  
 Mach =   0.800     Re =    20.000 e 6     Ncrit =   9.000
  
   alpha    CL        CD       CDp       CM     Top_Xtr  Bot_Xtr
  ------ -------- --------- --------- -------- -------- --------
  -0.224   0.4000   0.00641   0.00273  -0.1295   0.1184   0.5016
   0.301   0.5000   0.00681   0.00308  -0.1271   0.0735   0.5295
   0.556   0.5500   0.00698   0.00326  -0.1260   0.0634   0.5389
   0.817   0.6000   0.00720   0.00348  -0.1243   0.0542   0.5445
   1.074   0.6500   0.00741   0.00370  -0.1226   0.0517   0.5456
   1.328   0.7000   0.00765   0.00395  -0.1206   0.0456   0.5498
