  
       XFOIL         Version 6.97
  
 Calculated polar for: NE145                                           
  
 1 1 Reynolds number fixed          Mach number fixed         
  
 xtrf =   1.000 (top)        1.000 (bottom)  
 Mach =   0.500     Re =    15.000 e 6     Ncrit =   9.000
  
   alpha    CL        CD       CDp       CM     Top_Xtr  Bot_Xtr
  ------ -------- --------- --------- -------- -------- --------
  -0.692   0.3000   0.00531   0.00127  -0.1143   0.1543   0.5395
  -0.319   0.3500   0.00548   0.00135  -0.1145   0.1176   0.5547
   0.056   0.4000   0.00568   0.00146  -0.1145   0.0898   0.5569
   0.430   0.4500   0.00588   0.00158  -0.1145   0.0687   0.5587
   0.801   0.5000   0.00605   0.00170  -0.1145   0.0557   0.5639
   1.169   0.5500   0.00621   0.00183  -0.1145   0.0473   0.5677
   1.536   0.6000   0.00637   0.00196  -0.1144   0.0420   0.5704
   1.905   0.6500   0.00655   0.00211  -0.1141   0.0371   0.5721
   2.271   0.7000   0.00671   0.00226  -0.1138   0.0356   0.5729
