  
       XFOIL         Version 6.97
  
 Calculated polar for: NC145                                           
  
 1 1 Reynolds number fixed          Mach number fixed         
  
 xtrf =   1.000 (top)        1.000 (bottom)  
 Mach =   0.400     Re =    10.000 e 6     Ncrit =   9.000
  
   alpha    CL        CD       CDp       CM     Top_Xtr  Bot_Xtr
  ------ -------- --------- --------- -------- -------- --------
  -0.267   0.3000   0.00481   0.00104  -0.0973   0.3336   0.5965
   0.178   0.3500   0.00529   0.00122  -0.0964   0.2327   0.6051
   0.605   0.4000   0.00565   0.00137  -0.0959   0.1646   0.6095
   1.024   0.4500   0.00596   0.00152  -0.0956   0.1180   0.6113
   1.440   0.5000   0.00624   0.00168  -0.0952   0.0830   0.6128
   1.851   0.5500   0.00649   0.00183  -0.0949   0.0637   0.6138
   2.258   0.6000   0.00671   0.00199  -0.0947   0.0505   0.6145
   2.664   0.6500   0.00693   0.00216  -0.0943   0.0426   0.6150
   3.070   0.7000   0.00714   0.00234  -0.0940   0.0365   0.6167
