  
       XFOIL         Version 6.97
  
 Calculated polar for: NE130                                           
  
 1 1 Reynolds number fixed          Mach number fixed         
  
 xtrf =   1.000 (top)        1.000 (bottom)  
 Mach =   0.700     Re =    20.000 e 6     Ncrit =   9.000
  
   alpha    CL        CD       CDp       CM     Top_Xtr  Bot_Xtr
  ------ -------- --------- --------- -------- -------- --------
  -0.806   0.3000   0.00536   0.00161  -0.1244   0.1729   0.4815
  -0.478   0.3500   0.00549   0.00168  -0.1234   0.1299   0.5113
  -0.148   0.4000   0.00566   0.00179  -0.1223   0.0954   0.5287
   0.178   0.4500   0.00584   0.00193  -0.1211   0.0714   0.5411
   0.497   0.5000   0.00600   0.00208  -0.1200   0.0597   0.5493
   0.824   0.5500   0.00619   0.00224  -0.1185   0.0508   0.5515
   1.147   0.6000   0.00638   0.00242  -0.1169   0.0466   0.5527
   1.462   0.6500   0.00655   0.00259  -0.1153   0.0423   0.5575
   1.771   0.7000   0.00671   0.00277  -0.1138   0.0409   0.5617
