  
       XFOIL         Version 6.97
  
 Calculated polar for: NC120                                           
  
 1 1 Reynolds number fixed          Mach number fixed         
  
 xtrf =   1.000 (top)        1.000 (bottom)  
 Mach =   0.400     Re =    30.000 e 6     Ncrit =   9.000
  
   alpha    CL        CD       CDp       CM     Top_Xtr  Bot_Xtr
  ------ -------- --------- --------- -------- -------- --------
  -0.181   0.3500   0.00561   0.00113  -0.1048   0.1314   0.2326
   0.218   0.4000   0.00544   0.00113  -0.1054   0.1027   0.3551
   0.601   0.4500   0.00506   0.00110  -0.1066   0.0790   0.5398
   1.008   0.5000   0.00508   0.00118  -0.1067   0.0574   0.6028
   1.419   0.5500   0.00522   0.00128  -0.1065   0.0471   0.6094
   1.831   0.6000   0.00538   0.00139  -0.1062   0.0386   0.6127
   2.242   0.6500   0.00553   0.00152  -0.1058   0.0325   0.6177
   2.653   0.7000   0.00569   0.00165  -0.1053   0.0274   0.6212
