  
       XFOIL         Version 6.97
  
 Calculated polar for: NC130                                           
  
 1 1 Reynolds number fixed          Mach number fixed         
  
 xtrf =   1.000 (top)        1.000 (bottom)  
 Mach =   0.700     Re =    20.000 e 6     Ncrit =   9.000
  
   alpha    CL        CD       CDp       CM     Top_Xtr  Bot_Xtr
  ------ -------- --------- --------- -------- -------- --------
   0.254   0.3500   0.00525   0.00164  -0.0956   0.1712   0.5800
   0.606   0.4000   0.00553   0.00182  -0.0937   0.1219   0.5893
   0.952   0.4500   0.00579   0.00201  -0.0919   0.0845   0.6007
   1.300   0.5000   0.00605   0.00221  -0.0898   0.0630   0.6030
   1.638   0.5500   0.00628   0.00241  -0.0878   0.0497   0.6042
   1.970   0.6000   0.00650   0.00261  -0.0859   0.0411   0.6050
   2.297   0.6500   0.00673   0.00283  -0.0838   0.0350   0.6055
   2.622   0.7000   0.00697   0.00307  -0.0816   0.0302   0.6062
