  
       XFOIL         Version 6.97
  
 Calculated polar for: NE130                                           
  
 1 1 Reynolds number fixed          Mach number fixed         
  
 xtrf =   1.000 (top)        1.000 (bottom)  
 Mach =   0.400     Re =    20.000 e 6     Ncrit =   9.000
  
   alpha    CL        CD       CDp       CM     Top_Xtr  Bot_Xtr
  ------ -------- --------- --------- -------- -------- --------
  -0.865   0.3000   0.00497   0.00100  -0.1147   0.1700   0.4927
  -0.055   0.4000   0.00518   0.00112  -0.1149   0.0973   0.5526
   0.352   0.4500   0.00535   0.00122  -0.1148   0.0745   0.5608
   0.755   0.5000   0.00550   0.00131  -0.1148   0.0607   0.5651
   1.158   0.5500   0.00565   0.00142  -0.1147   0.0531   0.5673
   1.559   0.6000   0.00579   0.00152  -0.1146   0.0487   0.5693
   1.961   0.6500   0.00594   0.00164  -0.1144   0.0425   0.5754
   2.359   0.7000   0.00607   0.00176  -0.1142   0.0413   0.5795
