  
       XFOIL         Version 6.97
  
 Calculated polar for: NE090                                           
  
 1 1 Reynolds number fixed          Mach number fixed         
  
 xtrf =   1.000 (top)        1.000 (bottom)  
 Mach =   0.400     Re =    10.000 e 6     Ncrit =   9.000
  
   alpha    CL        CD       CDp       CM     Top_Xtr  Bot_Xtr
  ------ -------- --------- --------- -------- -------- --------
  -1.154   0.3500   0.00587   0.00101  -0.1305   0.3861   0.0225
  -0.714   0.4000   0.00610   0.00108  -0.1300   0.2782   0.0925
  -0.326   0.4500   0.00529   0.00099  -0.1316   0.2186   0.5004
   0.097   0.5000   0.00543   0.00109  -0.1314   0.1572   0.5681
   0.516   0.5500   0.00561   0.00121  -0.1310   0.1152   0.6059
   0.933   0.6000   0.00583   0.00134  -0.1306   0.0853   0.6140
   1.345   0.6500   0.00602   0.00146  -0.1303   0.0706   0.6209
   1.754   0.7000   0.00618   0.00160  -0.1300   0.0609   0.6284
