  
       XFOIL         Version 6.97
  
 Calculated polar for: NE090                                           
  
 1 1 Reynolds number fixed          Mach number fixed         
  
 xtrf =   1.000 (top)        1.000 (bottom)  
 Mach =   0.800     Re =    30.000 e 6     Ncrit =   9.000
  
   alpha    CL        CD       CDp       CM     Top_Xtr  Bot_Xtr
  ------ -------- --------- --------- -------- -------- --------
  -1.555   0.3000   0.00629   0.00235  -0.1663   0.2853   0.0083
  -1.296   0.3500   0.00635   0.00224  -0.1650   0.2331   0.0090
  -0.771   0.4500   0.00659   0.00228  -0.1626   0.1650   0.0098
  -0.501   0.5000   0.00677   0.00236  -0.1612   0.1242   0.0098
  -0.237   0.5500   0.00691   0.00245  -0.1601   0.0981   0.0116
   0.027   0.6000   0.00706   0.00256  -0.1589   0.0787   0.0140
   0.285   0.6500   0.00716   0.00268  -0.1579   0.0688   0.0299
   0.535   0.7000   0.00722   0.00282  -0.1571   0.0611   0.0783
