  
       XFOIL         Version 6.97
  
 Calculated polar for: NC120                                           
  
 1 1 Reynolds number fixed          Mach number fixed         
  
 xtrf =   1.000 (top)        1.000 (bottom)  
 Mach =   0.400     Re =    25.000 e 6     Ncrit =   9.000
  
   alpha    CL        CD       CDp       CM     Top_Xtr  Bot_Xtr
  ------ -------- --------- --------- -------- -------- --------
  -0.576   0.3000   0.00563   0.00110  -0.1043   0.1929   0.1954
   0.217   0.4000   0.00508   0.00105  -0.1059   0.1172   0.5095
   0.622   0.4500   0.00504   0.00111  -0.1062   0.0867   0.5929
   1.038   0.5000   0.00519   0.00121  -0.1059   0.0642   0.6096
   1.453   0.5500   0.00536   0.00133  -0.1056   0.0492   0.6158
   1.865   0.6000   0.00552   0.00144  -0.1052   0.0396   0.6198
   2.278   0.6500   0.00568   0.00157  -0.1048   0.0329   0.6225
   2.692   0.7000   0.00586   0.00171  -0.1042   0.0283   0.6240
