  
       XFOIL         Version 6.97
  
 Calculated polar for: NC145                                           
  
 1 1 Reynolds number fixed          Mach number fixed         
  
 xtrf =   1.000 (top)        1.000 (bottom)  
 Mach =   0.500     Re =    30.000 e 6     Ncrit =   9.000
  
   alpha    CL        CD       CDp       CM     Top_Xtr  Bot_Xtr
  ------ -------- --------- --------- -------- -------- --------
  -0.350   0.3000   0.00505   0.00120  -0.1009   0.1393   0.4916
  -0.003   0.3500   0.00499   0.00121  -0.1021   0.1114   0.5525
   0.367   0.4000   0.00513   0.00129  -0.1024   0.0867   0.5685
   0.734   0.4500   0.00524   0.00138  -0.1027   0.0699   0.5836
   1.108   0.5000   0.00541   0.00150  -0.1026   0.0537   0.5916
   1.479   0.5500   0.00556   0.00162  -0.1026   0.0449   0.5943
   1.849   0.6000   0.00570   0.00174  -0.1024   0.0396   0.5964
   2.220   0.6500   0.00586   0.00187  -0.1022   0.0345   0.5977
   2.590   0.7000   0.00603   0.00201  -0.1018   0.0307   0.5985
