  
       XFOIL         Version 6.97
  
 Calculated polar for: NE090                                           
  
 1 1 Reynolds number fixed          Mach number fixed         
  
 xtrf =   1.000 (top)        1.000 (bottom)  
 Mach =   0.600     Re =    20.000 e 6     Ncrit =   9.000
  
   alpha    CL        CD       CDp       CM     Top_Xtr  Bot_Xtr
  ------ -------- --------- --------- -------- -------- --------
  -1.399   0.3500   0.00590   0.00129  -0.1458   0.2622   0.0104
  -1.033   0.4000   0.00606   0.00131  -0.1452   0.2024   0.0128
  -0.672   0.4500   0.00620   0.00135  -0.1447   0.1594   0.0188
  -0.319   0.5000   0.00625   0.00139  -0.1445   0.1281   0.0570
  -0.001   0.5500   0.00564   0.00138  -0.1463   0.0950   0.4123
   0.344   0.6000   0.00554   0.00144  -0.1464   0.0756   0.5166
   0.693   0.6500   0.00558   0.00154  -0.1461   0.0628   0.5699
   1.041   0.7000   0.00571   0.00165  -0.1456   0.0580   0.5761
