  
       XFOIL         Version 6.97
  
 Calculated polar for: NE120                                           
  
 1 1 Reynolds number fixed          Mach number fixed         
  
 xtrf =   1.000 (top)        1.000 (bottom)  
 Mach =   0.500     Re =    10.000 e 6     Ncrit =   9.000
  
   alpha    CL        CD       CDp       CM     Top_Xtr  Bot_Xtr
  ------ -------- --------- --------- -------- -------- --------
  -1.135   0.3000   0.00477   0.00100  -0.1237   0.3524   0.5276
  -0.714   0.3500   0.00512   0.00112  -0.1227   0.2600   0.5497
  -0.310   0.4000   0.00539   0.00124  -0.1220   0.1978   0.5651
   0.092   0.4500   0.00567   0.00137  -0.1214   0.1442   0.5744
   0.491   0.5000   0.00596   0.00151  -0.1207   0.1013   0.5774
   0.881   0.5500   0.00618   0.00165  -0.1203   0.0762   0.5831
   1.265   0.6000   0.00636   0.00179  -0.1198   0.0642   0.5870
   1.649   0.6500   0.00656   0.00194  -0.1193   0.0547   0.5895
   2.029   0.7000   0.00674   0.00209  -0.1187   0.0508   0.5917
