  
       XFOIL         Version 6.97
  
 Calculated polar for: NC145                                           
  
 1 1 Reynolds number fixed          Mach number fixed         
  
 xtrf =   1.000 (top)        1.000 (bottom)  
 Mach =   0.600     Re =    25.000 e 6     Ncrit =   9.000
  
   alpha    CL        CD       CDp       CM     Top_Xtr  Bot_Xtr
  ------ -------- --------- --------- -------- -------- --------
  -0.382   0.3000   0.00496   0.00130  -0.1043   0.1708   0.5494
  -0.039   0.3500   0.00511   0.00140  -0.1044   0.1348   0.5677
   0.310   0.4000   0.00531   0.00151  -0.1041   0.1017   0.5769
   0.656   0.4500   0.00548   0.00163  -0.1039   0.0789   0.5840
   1.002   0.5000   0.00566   0.00176  -0.1035   0.0601   0.5910
   1.347   0.5500   0.00584   0.00191  -0.1030   0.0487   0.5934
   1.690   0.6000   0.00600   0.00205  -0.1025   0.0420   0.5953
   2.033   0.6500   0.00618   0.00221  -0.1018   0.0362   0.5968
   2.382   0.7000   0.00637   0.00238  -0.1007   0.0312   0.5979
