  
       XFOIL         Version 6.97
  
 Calculated polar for: NC145                                           
  
 1 1 Reynolds number fixed          Mach number fixed         
  
 xtrf =   1.000 (top)        1.000 (bottom)  
 Mach =   0.600     Re =    10.000 e 6     Ncrit =   9.000
  
   alpha    CL        CD       CDp       CM     Top_Xtr  Bot_Xtr
  ------ -------- --------- --------- -------- -------- --------
  -0.356   0.3000   0.00468   0.00120  -0.1029   0.4040   0.5878
   0.071   0.3500   0.00534   0.00149  -0.1005   0.2688   0.5965
   0.474   0.4000   0.00585   0.00173  -0.0987   0.1790   0.5995
   0.855   0.4500   0.00621   0.00192  -0.0975   0.1214   0.6026
   1.235   0.5000   0.00651   0.00211  -0.0961   0.0843   0.6055
   1.610   0.5500   0.00677   0.00231  -0.0947   0.0625   0.6076
   1.978   0.6000   0.00701   0.00251  -0.0934   0.0492   0.6094
   2.335   0.6500   0.00724   0.00272  -0.0922   0.0419   0.6110
   2.688   0.7000   0.00749   0.00296  -0.0910   0.0362   0.6123
