  
       XFOIL         Version 6.97
  
 Calculated polar for: NE130                                           
  
 1 1 Reynolds number fixed          Mach number fixed         
  
 xtrf =   1.000 (top)        1.000 (bottom)  
 Mach =   0.500     Re =    30.000 e 6     Ncrit =   9.000
  
   alpha    CL        CD       CDp       CM     Top_Xtr  Bot_Xtr
  ------ -------- --------- --------- -------- -------- --------
  -0.926   0.3000   0.00525   0.00121  -0.1184   0.1325   0.3810
  -0.201   0.4000   0.00505   0.00118  -0.1199   0.0820   0.5204
   0.174   0.4500   0.00514   0.00125  -0.1199   0.0662   0.5432
   0.549   0.5000   0.00527   0.00134  -0.1198   0.0557   0.5495
   0.923   0.5500   0.00539   0.00144  -0.1197   0.0499   0.5519
   1.299   0.6000   0.00553   0.00155  -0.1194   0.0444   0.5533
   1.670   0.6500   0.00565   0.00165  -0.1192   0.0420   0.5595
   2.044   0.7000   0.00579   0.00178  -0.1188   0.0385   0.5641
